xflr5 v6.61

 Calculated polar for: NACA 0008

 1 1 Reynolds number fixed          Mach number fixed         

 xtrf =   1.000 (top)        1.000 (bottom)
 Mach =   0.000     Re =     0.350 e 6     Ncrit =   9.000

  alpha     CL        CD       CDp       Cm    Top Xtr Bot Xtr   Cpmin    Chinge    XCp    
 ------- -------- --------- --------- -------- ------- ------- -------- --------- ---------
 -13.000  -0.7019   0.15850   0.15570   0.0360  1.0000  0.0232  -2.1534   0.0000   0.0000   0.0000   0.2929
 -12.900  -0.7007   0.15666   0.15386   0.0353  1.0000  0.0233  -2.1626   0.0000   0.0000   0.0000   0.2920
 -12.800  -0.6995   0.15479   0.15200   0.0346  1.0000  0.0233  -2.1723   0.0000   0.0000   0.0000   0.2912
 -12.700  -0.6984   0.15291   0.15012   0.0339  1.0000  0.0233  -2.1827   0.0000   0.0000   0.0000   0.2903
 -12.600  -0.6973   0.15101   0.14822   0.0332  1.0000  0.0233  -2.1938   0.0000   0.0000   0.0000   0.2894
 -12.500  -0.6963   0.14910   0.14631   0.0325  1.0000  0.0233  -2.2057   0.0000   0.0000   0.0000   0.2885
 -12.400  -0.6953   0.14717   0.14438   0.0318  1.0000  0.0233  -2.2212   0.0000   0.0000   0.0000   0.2876
 -12.300  -0.6945   0.14522   0.14244   0.0310  1.0000  0.0233  -2.2469   0.0000   0.0000   0.0000   0.2867
 -12.200  -0.6938   0.14326   0.14049   0.0303  1.0000  0.0233  -2.2737   0.0000   0.0000   0.0000   0.2857
 -12.100  -0.6931   0.14128   0.13851   0.0295  1.0000  0.0233  -2.3015   0.0000   0.0000   0.0000   0.2848
 -12.000  -0.6926   0.13929   0.13652   0.0288  1.0000  0.0233  -2.3306   0.0000   0.0000   0.0000   0.2838
 -11.900  -0.6922   0.13728   0.13452   0.0280  1.0000  0.0233  -2.3608   0.0000   0.0000   0.0000   0.2828
 -11.800  -0.6918   0.13525   0.13249   0.0273  1.0000  0.0233  -2.3924   0.0000   0.0000   0.0000   0.2818
 -11.700  -0.6917   0.13320   0.13045   0.0265  1.0000  0.0233  -2.4253   0.0000   0.0000   0.0000   0.2807
 -11.600  -0.6916   0.13114   0.12839   0.0257  1.0000  0.0233  -2.4595   0.0000   0.0000   0.0000   0.2797
 -11.500  -0.3388   0.04152   0.03930  -0.0255  1.0000  0.0250  -2.3430   0.0000   0.0000   0.0000   0.1727
 -11.100  -0.7067   0.11771   0.11501   0.0225  1.0000  0.0219  -2.7821   0.0000   0.0000   0.0000   0.2746
 -11.000  -0.7113   0.11496   0.11227   0.0216  1.0000  0.0212  -2.8571   0.0000   0.0000   0.0000   0.2731
 -10.900  -0.7143   0.11245   0.10976   0.0206  1.0000  0.0208  -2.9206   0.0000   0.0000   0.0000   0.2716
 -10.800  -0.7172   0.10995   0.10727   0.0195  1.0000  0.0205  -2.9842   0.0000   0.0000   0.0000   0.2701
 -10.700  -0.7202   0.10740   0.10473   0.0183  1.0000  0.0202  -3.0500   0.0000   0.0000   0.0000   0.2684
 -10.600  -0.7232   0.10477   0.10212   0.0171  1.0000  0.0200  -3.1192   0.0000   0.0000   0.0000   0.2666
 -10.500  -0.7266   0.10206   0.09942   0.0157  1.0000  0.0197  -3.1920   0.0000   0.0000   0.0000   0.2647
 -10.400  -0.7304   0.09927   0.09664   0.0143  1.0000  0.0195  -3.2691   0.0000   0.0000   0.0000   0.2627
 -10.300  -0.7346   0.09637   0.09375   0.0127  1.0000  0.0193  -3.3513   0.0000   0.0000   0.0000   0.2604
 -10.200  -0.7392   0.09334   0.09079   0.0110  1.0000  0.0190  -3.4395   0.0000   0.0000   0.0000   0.2580
 -10.100  -0.7444   0.09006   0.08753   0.0089  1.0000  0.0188  -3.5378   0.0000   0.0000   0.0000   0.2553
 -10.000  -0.7505   0.08647   0.08396   0.0066  1.0000  0.0185  -3.6488   0.0000   0.0000   0.0000   0.2520
  -9.900  -0.7578   0.08234   0.07985   0.0035  1.0000  0.0182  -3.7814   0.0000   0.0000   0.0000   0.2480
  -9.800  -0.7682   0.07630   0.07383  -0.0019  1.0000  0.0178  -3.9851   0.0000   0.0000   0.0000   0.2409
  -9.700  -0.7858   0.06795   0.06541  -0.0108  1.0000  0.0171  -4.2823   0.0000   0.0000   0.0000   0.2295
  -9.600  -0.7998   0.06390   0.06128  -0.0140  1.0000  0.0167  -4.4377   0.0000   0.0000   0.0000   0.2259
  -9.500  -0.8138   0.06056   0.05785  -0.0153  1.0000  0.0164  -4.5838   0.0000   0.0000   0.0000   0.2247
  -9.400  -0.8286   0.05675   0.05392  -0.0161  1.0000  0.0161  -4.7751   0.0000   0.0000   0.0000   0.2241
  -9.300  -0.8458   0.05190   0.04885  -0.0166  1.0000  0.0156  -5.0584   0.0000   0.0000   0.0000   0.2238
  -9.200  -0.8608   0.04714   0.04381  -0.0165  1.0000  0.0152  -5.3520   0.0000   0.0000   0.0000   0.2243
  -9.100  -0.8657   0.04429   0.04077  -0.0160  1.0000  0.0151  -5.4785   0.0000   0.0000   0.0000   0.2249
  -9.000  -0.8677   0.04195   0.03825  -0.0156  1.0000  0.0151  -5.5585   0.0000   0.0000   0.0000   0.2256
  -8.900  -0.8676   0.03997   0.03611  -0.0151  1.0000  0.0152  -5.6043   0.0000   0.0000   0.0000   0.2262
  -8.800  -0.8659   0.03824   0.03422  -0.0145  1.0000  0.0154  -5.6271   0.0000   0.0000   0.0000   0.2268
  -8.700  -0.8632   0.03667   0.03250  -0.0140  1.0000  0.0155  -5.6340   0.0000   0.0000   0.0000   0.2274
  -8.600  -0.8595   0.03521   0.03090  -0.0135  1.0000  0.0157  -5.6289   0.0000   0.0000   0.0000   0.2280
  -8.500  -0.8552   0.03385   0.02939  -0.0130  1.0000  0.0159  -5.6147   0.0000   0.0000   0.0000   0.2286
  -8.400  -0.8503   0.03256   0.02796  -0.0125  1.0000  0.0162  -5.5935   0.0000   0.0000   0.0000   0.2292
  -8.300  -0.8448   0.03133   0.02659  -0.0120  1.0000  0.0164  -5.5658   0.0000   0.0000   0.0000   0.2298
  -8.200  -0.8389   0.03018   0.02530  -0.0115  1.0000  0.0167  -5.5300   0.0000   0.0000   0.0000   0.2303
  -8.100  -0.8325   0.02908   0.02407  -0.0110  1.0000  0.0170  -5.4895   0.0000   0.0000   0.0000   0.2309
  -8.000  -0.8253   0.02818   0.02306  -0.0106  1.0000  0.0174  -5.4282   0.0000   0.0000   0.0000   0.2313
  -7.900  -0.8172   0.02763   0.02243  -0.0103  1.0000  0.0180  -5.3340   0.0000   0.0000   0.0000   0.2317
  -7.800  -0.8088   0.02711   0.02185  -0.0100  1.0000  0.0187  -5.2374   0.0000   0.0000   0.0000   0.2320
  -7.700  -0.8004   0.02653   0.02118  -0.0096  1.0000  0.0194  -5.1492   0.0000   0.0000   0.0000   0.2324
  -7.600  -0.7921   0.02584   0.02040  -0.0092  1.0000  0.0201  -5.0728   0.0000   0.0000   0.0000   0.2328
  -7.500  -0.7839   0.02506   0.01950  -0.0088  1.0000  0.0206  -5.0069   0.0000   0.0000   0.0000   0.2333
  -7.400  -0.7757   0.02421   0.01853  -0.0084  1.0000  0.0211  -4.9481   0.0000   0.0000   0.0000   0.2339
  -7.300  -0.7672   0.02345   0.01760  -0.0079  1.0000  0.0216  -4.8777   0.0000   0.0000   0.0000   0.2344
  -7.200  -0.7582   0.02287   0.01693  -0.0076  1.0000  0.0221  -4.7962   0.0000   0.0000   0.0000   0.2348
  -7.100  -0.7488   0.02246   0.01646  -0.0073  1.0000  0.0225  -4.7001   0.0000   0.0000   0.0000   0.2352
  -7.000  -0.7390   0.02224   0.01617  -0.0070  1.0000  0.0229  -4.5900   0.0000   0.0000   0.0000   0.2355
  -6.900  -0.7288   0.02220   0.01609  -0.0068  1.0000  0.0233  -4.4665   0.0000   0.0000   0.0000   0.2357
  -6.800  -0.7235   0.01986   0.01350  -0.0060  1.0000  0.0243  -4.4983   0.0000   0.0000   0.0000   0.2368
  -6.700  -0.7175   0.01803   0.01152  -0.0052  1.0000  0.0261  -4.4947   0.0000   0.0000   0.0000   0.2378
  -6.600  -0.7089   0.01739   0.01084  -0.0049  1.0000  0.0275  -4.4039   0.0000   0.0000   0.0000   0.2383
  -6.500  -0.6994   0.01708   0.01051  -0.0046  1.0000  0.0289  -4.2889   0.0000   0.0000   0.0000   0.2387
  -6.400  -0.6896   0.01693   0.01036  -0.0045  1.0000  0.0305  -4.1616   0.0000   0.0000   0.0000   0.2389
  -6.300  -0.6796   0.01680   0.01023  -0.0043  1.0000  0.0323  -4.0361   0.0000   0.0000   0.0000   0.2391
  -6.200  -0.6696   0.01664   0.01003  -0.0041  1.0000  0.0342  -3.9175   0.0000   0.0000   0.0000   0.2394
  -6.100  -0.6596   0.01645   0.00981  -0.0039  1.0000  0.0359  -3.8026   0.0000   0.0000   0.0000   0.2398
  -6.000  -0.6496   0.01628   0.00961  -0.0036  1.0000  0.0373  -3.6875   0.0000   0.0000   0.0000   0.2401
  -5.900  -0.6393   0.01618   0.00948  -0.0034  1.0000  0.0382  -3.5692   0.0000   0.0000   0.0000   0.2404
  -5.800  -0.6289   0.01616   0.00944  -0.0033  1.0000  0.0389  -3.4462   0.0000   0.0000   0.0000   0.2406
  -5.700  -0.6193   0.01582   0.00906  -0.0030  1.0000  0.0397  -3.3419   0.0000   0.0000   0.0000   0.2411
  -5.600  -0.6119   0.01471   0.00785  -0.0023  1.0000  0.0416  -3.2837   0.0000   0.0000   0.0000   0.2421
  -5.500  -0.6033   0.01415   0.00723  -0.0019  1.0000  0.0432  -3.1951   0.0000   0.0000   0.0000   0.2429
  -5.400  -0.5942   0.01377   0.00684  -0.0015  1.0000  0.0450  -3.1113   0.0000   0.0000   0.0000   0.2435
  -5.300  -0.5847   0.01351   0.00657  -0.0013  1.0000  0.0466  -3.0203   0.0000   0.0000   0.0000   0.2440
  -5.200  -0.5751   0.01331   0.00636  -0.0010  1.0000  0.0481  -2.9275   0.0000   0.0000   0.0000   0.2445
  -5.100  -0.5654   0.01310   0.00613  -0.0007  1.0000  0.0493  -2.8367   0.0000   0.0000   0.0000   0.2450
  -5.000  -0.5558   0.01288   0.00584  -0.0004  1.0000  0.0504  -2.7477   0.0000   0.0000   0.0000   0.2456
  -4.900  -0.5463   0.01264   0.00558  -0.0001  1.0000  0.0514  -2.6635   0.0000   0.0000   0.0000   0.2463
  -4.800  -0.5366   0.01244   0.00536   0.0002  1.0000  0.0526  -2.5778   0.0000   0.0000   0.0000   0.2469
  -4.700  -0.5270   0.01224   0.00514   0.0005  1.0000  0.0541  -2.4926   0.0000   0.0000   0.0000   0.2475
  -4.600  -0.5174   0.01205   0.00492   0.0008  1.0000  0.0554  -2.4094   0.0000   0.0000   0.0000   0.2482
  -4.500  -0.5077   0.01185   0.00469   0.0011  1.0000  0.0567  -2.3283   0.0000   0.0000   0.0000   0.2490
  -4.400  -0.4980   0.01168   0.00449   0.0015  1.0000  0.0578  -2.2473   0.0000   0.0000   0.0000   0.2497
  -4.300  -0.4885   0.01147   0.00425   0.0018  1.0000  0.0596  -2.1700   0.0000   0.0000   0.0000   0.2505
  -4.200  -0.4797   0.01104   0.00382   0.0023  1.0000  0.0667  -2.1062   0.0000   0.0000   0.0000   0.2517
  -4.100  -0.4702   0.01083   0.00364   0.0026  1.0000  0.0724  -2.0277   0.0000   0.0000   0.0000   0.2525
  -4.000  -0.4604   0.01067   0.00348   0.0029  1.0000  0.0782  -1.9481   0.0000   0.0000   0.0000   0.2533
  -3.900  -0.4512   0.01038   0.00327   0.0032  1.0000  0.0930  -1.8854   0.0000   0.0000   0.0000   0.2542
  -3.800  -0.4421   0.01005   0.00309   0.0036  1.0000  0.1213  -1.8243   0.0000   0.0000   0.0000   0.2551
  -3.700  -0.4333   0.00971   0.00294   0.0038  1.0000  0.1602  -1.7618   0.0000   0.0000   0.0000   0.2560
  -3.600  -0.4242   0.00943   0.00282   0.0041  1.0000  0.1967  -1.6974   0.0000   0.0000   0.0000   0.2568
  -3.500  -0.4150   0.00917   0.00272   0.0043  1.0000  0.2317  -1.6322   0.0000   0.0000   0.0000   0.2577
  -3.400  -0.4056   0.00895   0.00260   0.0046  1.0000  0.2639  -1.5657   0.0000   0.0000   0.0000   0.2585
  -3.300  -0.3962   0.00873   0.00252   0.0048  1.0000  0.2957  -1.5014   0.0000   0.0000   0.0000   0.2595
  -3.200  -0.3868   0.00854   0.00245   0.0050  1.0000  0.3265  -1.4590   0.0000   0.0000   0.0000   0.2604
  -3.100  -0.3773   0.00836   0.00238   0.0053  1.0000  0.3560  -1.4172   0.0000   0.0000   0.0000   0.2614
  -3.000  -0.3678   0.00819   0.00232   0.0055  1.0000  0.3854  -1.3755   0.0000   0.0000   0.0000   0.2625
  -2.900  -0.3582   0.00802   0.00227   0.0058  1.0000  0.4144  -1.3338   0.0000   0.0000   0.0000   0.2637
  -2.800  -0.3486   0.00787   0.00222   0.0060  1.0000  0.4426  -1.2922   0.0000   0.0000   0.0000   0.2648
  -2.700  -0.3390   0.00773   0.00218   0.0063  1.0000  0.4698  -1.2508   0.0000   0.0000   0.0000   0.2661
  -2.600  -0.3294   0.00758   0.00214   0.0065  1.0000  0.4970  -1.2096   0.0000   0.0000   0.0000   0.2675
  -2.500  -0.3199   0.00742   0.00212   0.0068  1.0000  0.5291  -1.1690   0.0000   0.0000   0.0000   0.2691
  -2.400  -0.3104   0.00727   0.00209   0.0071  1.0000  0.5627  -1.1286   0.0000   0.0000   0.0000   0.2707
  -2.300  -0.3010   0.00711   0.00208   0.0075  1.0000  0.5949  -1.0886   0.0000   0.0000   0.0000   0.2726
  -2.200  -0.2915   0.00697   0.00207   0.0078  1.0000  0.6264  -1.0488   0.0000   0.0000   0.0000   0.2747
  -2.100  -0.2820   0.00685   0.00204   0.0081  1.0000  0.6562  -1.0094   0.0000   0.0000   0.0000   0.2768
  -2.000  -0.2724   0.00673   0.00204   0.0085  1.0000  0.6830  -0.9700   0.0000   0.0000   0.0000   0.2792
  -1.900  -0.2628   0.00664   0.00204   0.0089  1.0000  0.7082  -0.9309   0.0000   0.0000   0.0000   0.2818
  -1.800  -0.2533   0.00654   0.00206   0.0093  1.0000  0.7347  -0.8922   0.0000   0.0000   0.0000   0.2848
  -1.700  -0.2439   0.00645   0.00208   0.0098  1.0000  0.7619  -0.8541   0.0000   0.0000   0.0000   0.2882
  -1.600  -0.2346   0.00637   0.00210   0.0103  1.0000  0.7887  -0.8165   0.0000   0.0000   0.0000   0.2921
  -1.500  -0.2254   0.00632   0.00214   0.0109  1.0000  0.8137  -0.7793   0.0000   0.0000   0.0000   0.2964
  -1.400  -0.2162   0.00628   0.00218   0.0114  1.0000  0.8363  -0.7425   0.0000   0.0000   0.0000   0.3012
  -1.300  -0.2070   0.00626   0.00222   0.0120  1.0000  0.8565  -0.7059   0.0000   0.0000   0.0000   0.3064
  -1.200  -0.1978   0.00625   0.00227   0.0126  1.0000  0.8761  -0.6698   0.0000   0.0000   0.0000   0.3122
  -1.100  -0.1886   0.00626   0.00232   0.0133  1.0000  0.8959  -0.6340   0.0000   0.0000   0.0000   0.3187
  -1.000  -0.1790   0.00628   0.00238   0.0138  1.0000  0.9148  -0.5977   0.0000   0.0000   0.0000   0.3254
  -0.900  -0.1685   0.00632   0.00244   0.0141  1.0000  0.9323  -0.5641   0.0000   0.0000   0.0000   0.3322
  -0.800  -0.1545   0.00636   0.00248   0.0137  1.0000  0.9456  -0.5322   0.0000   0.0000   0.0000   0.3369
  -0.700  -0.1411   0.00640   0.00251   0.0132  1.0000  0.9573  -0.5011   0.0000   0.0000   0.0000   0.3424
  -0.600  -0.1233   0.00644   0.00255   0.0119  0.9997  0.9656  -0.4647   0.0000   0.0000   0.0000   0.3449
  -0.500  -0.1041   0.00647   0.00257   0.0102  0.9979  0.9726  -0.4270   0.0000   0.0000   0.0000   0.3466
  -0.400  -0.0840   0.00649   0.00259   0.0083  0.9963  0.9776  -0.3888   0.0000   0.0000   0.0000   0.3477
  -0.300  -0.0629   0.00651   0.00260   0.0062  0.9949  0.9814  -0.3541   0.0000   0.0000   0.0000   0.3475
  -0.200  -0.0420   0.00653   0.00262   0.0042  0.9935  0.9850  -0.3295   0.0000   0.0000   0.0000   0.3478
  -0.100  -0.0209   0.00654   0.00263   0.0020  0.9921  0.9879  -0.3049   0.0000   0.0000   0.0000   0.3468
   0.000   0.0000   0.00655   0.00264  -0.0000  0.9906  0.9906  -0.2807   0.0000   0.0000   0.0000   0.4196
   0.100   0.0209   0.00654   0.00263  -0.0020  0.9879  0.9921  -0.3049   0.0000   0.0000   0.0000   0.3468
   0.200   0.0420   0.00653   0.00262  -0.0042  0.9850  0.9935  -0.3295   0.0000   0.0000   0.0000   0.3478
   0.300   0.0629   0.00651   0.00260  -0.0062  0.9814  0.9949  -0.3541   0.0000   0.0000   0.0000   0.3476
   0.400   0.0840   0.00649   0.00259  -0.0083  0.9776  0.9963  -0.3888   0.0000   0.0000   0.0000   0.3477
   0.500   0.1041   0.00647   0.00257  -0.0102  0.9726  0.9979  -0.4270   0.0000   0.0000   0.0000   0.3466
   0.600   0.1233   0.00644   0.00255  -0.0119  0.9656  0.9997  -0.4647   0.0000   0.0000   0.0000   0.3449
   0.700   0.1411   0.00640   0.00251  -0.0132  0.9573  1.0000  -0.5011   0.0000   0.0000   0.0000   0.3424
   0.800   0.1545   0.00636   0.00248  -0.0137  0.9456  1.0000  -0.5322   0.0000   0.0000   0.0000   0.3369
   0.900   0.1685   0.00632   0.00243  -0.0141  0.9323  1.0000  -0.5641   0.0000   0.0000   0.0000   0.3322
   1.000   0.1789   0.00628   0.00238  -0.0138  0.9148  1.0000  -0.5976   0.0000   0.0000   0.0000   0.3254
   1.100   0.1886   0.00626   0.00232  -0.0133  0.8959  1.0000  -0.6340   0.0000   0.0000   0.0000   0.3187
   1.200   0.1978   0.00625   0.00227  -0.0126  0.8761  1.0000  -0.6698   0.0000   0.0000   0.0000   0.3122
   1.300   0.2070   0.00625   0.00222  -0.0120  0.8565  1.0000  -0.7059   0.0000   0.0000   0.0000   0.3063
   1.400   0.2162   0.00628   0.00218  -0.0114  0.8364  1.0000  -0.7424   0.0000   0.0000   0.0000   0.3011
   1.500   0.2254   0.00632   0.00214  -0.0109  0.8137  1.0000  -0.7792   0.0000   0.0000   0.0000   0.2964
   1.600   0.2346   0.00637   0.00210  -0.0103  0.7888  1.0000  -0.8164   0.0000   0.0000   0.0000   0.2921
   1.700   0.2439   0.00645   0.00208  -0.0098  0.7619  1.0000  -0.8540   0.0000   0.0000   0.0000   0.2882
   1.800   0.2533   0.00654   0.00206  -0.0093  0.7347  1.0000  -0.8921   0.0000   0.0000   0.0000   0.2848
   1.900   0.2627   0.00663   0.00204  -0.0089  0.7082  1.0000  -0.9308   0.0000   0.0000   0.0000   0.2818
   2.000   0.2724   0.00673   0.00204  -0.0085  0.6830  1.0000  -0.9699   0.0000   0.0000   0.0000   0.2792
   2.100   0.2819   0.00685   0.00204  -0.0081  0.6562  1.0000  -1.0093   0.0000   0.0000   0.0000   0.2768
   2.200   0.2915   0.00697   0.00207  -0.0078  0.6265  1.0000  -1.0487   0.0000   0.0000   0.0000   0.2746
   2.300   0.3010   0.00711   0.00208  -0.0074  0.5950  1.0000  -1.0885   0.0000   0.0000   0.0000   0.2726
   2.400   0.3104   0.00727   0.00209  -0.0071  0.5628  1.0000  -1.1285   0.0000   0.0000   0.0000   0.2707
   2.500   0.3199   0.00742   0.00211  -0.0068  0.5292  1.0000  -1.1689   0.0000   0.0000   0.0000   0.2690
   2.600   0.3293   0.00758   0.00214  -0.0065  0.4971  1.0000  -1.2095   0.0000   0.0000   0.0000   0.2675
   2.700   0.3389   0.00773   0.00218  -0.0062  0.4698  1.0000  -1.2507   0.0000   0.0000   0.0000   0.2661
   2.800   0.3486   0.00787   0.00222  -0.0060  0.4426  1.0000  -1.2921   0.0000   0.0000   0.0000   0.2648
   2.900   0.3582   0.00802   0.00227  -0.0058  0.4144  1.0000  -1.3337   0.0000   0.0000   0.0000   0.2636
   3.000   0.3677   0.00818   0.00232  -0.0055  0.3855  1.0000  -1.3754   0.0000   0.0000   0.0000   0.2625
   3.100   0.3772   0.00836   0.00238  -0.0053  0.3561  1.0000  -1.4171   0.0000   0.0000   0.0000   0.2614
   3.200   0.3867   0.00854   0.00245  -0.0050  0.3266  1.0000  -1.4589   0.0000   0.0000   0.0000   0.2604
   3.300   0.3962   0.00873   0.00252  -0.0048  0.2958  1.0000  -1.5012   0.0000   0.0000   0.0000   0.2594
   3.400   0.4056   0.00895   0.00260  -0.0046  0.2639  1.0000  -1.5655   0.0000   0.0000   0.0000   0.2585
   3.500   0.4149   0.00917   0.00272  -0.0043  0.2317  1.0000  -1.6320   0.0000   0.0000   0.0000   0.2576
   3.600   0.4241   0.00943   0.00282  -0.0041  0.1968  1.0000  -1.6973   0.0000   0.0000   0.0000   0.2568
   3.700   0.4332   0.00971   0.00294  -0.0038  0.1603  1.0000  -1.7616   0.0000   0.0000   0.0000   0.2559
   3.800   0.4421   0.01005   0.00309  -0.0035  0.1213  1.0000  -1.8242   0.0000   0.0000   0.0000   0.2551
   3.900   0.4511   0.01038   0.00327  -0.0032  0.0930  1.0000  -1.8852   0.0000   0.0000   0.0000   0.2542
   4.000   0.4604   0.01066   0.00347  -0.0029  0.0782  1.0000  -1.9479   0.0000   0.0000   0.0000   0.2533
   4.100   0.4701   0.01083   0.00364  -0.0026  0.0724  1.0000  -2.0275   0.0000   0.0000   0.0000   0.2525
   4.200   0.4796   0.01104   0.00382  -0.0023  0.0667  1.0000  -2.1061   0.0000   0.0000   0.0000   0.2516
   4.300   0.4884   0.01146   0.00425  -0.0018  0.0596  1.0000  -2.1699   0.0000   0.0000   0.0000   0.2505
   4.400   0.4980   0.01168   0.00449  -0.0015  0.0578  1.0000  -2.2471   0.0000   0.0000   0.0000   0.2497
   4.500   0.5077   0.01185   0.00469  -0.0011  0.0567  1.0000  -2.3281   0.0000   0.0000   0.0000   0.2489
   4.600   0.5173   0.01205   0.00492  -0.0008  0.0554  1.0000  -2.4092   0.0000   0.0000   0.0000   0.2482
   4.700   0.5269   0.01224   0.00514  -0.0005  0.0541  1.0000  -2.4924   0.0000   0.0000   0.0000   0.2475
   4.800   0.5366   0.01244   0.00536  -0.0002  0.0527  1.0000  -2.5776   0.0000   0.0000   0.0000   0.2469
   4.900   0.5462   0.01264   0.00558   0.0001  0.0514  1.0000  -2.6633   0.0000   0.0000   0.0000   0.2462
   5.000   0.5558   0.01288   0.00584   0.0004  0.0504  1.0000  -2.7476   0.0000   0.0000   0.0000   0.2456
   5.100   0.5654   0.01310   0.00613   0.0007  0.0493  1.0000  -2.8366   0.0000   0.0000   0.0000   0.2450
   5.200   0.5750   0.01331   0.00636   0.0010  0.0481  1.0000  -2.9274   0.0000   0.0000   0.0000   0.2445
   5.300   0.5847   0.01351   0.00657   0.0013  0.0466  1.0000  -3.0202   0.0000   0.0000   0.0000   0.2440
   5.400   0.5942   0.01377   0.00683   0.0015  0.0450  1.0000  -3.1112   0.0000   0.0000   0.0000   0.2435
   5.500   0.6033   0.01415   0.00723   0.0019  0.0432  1.0000  -3.1950   0.0000   0.0000   0.0000   0.2429
   5.600   0.6119   0.01471   0.00784   0.0023  0.0416  1.0000  -3.2836   0.0000   0.0000   0.0000   0.2421
   5.700   0.6193   0.01582   0.00906   0.0030  0.0397  1.0000  -3.3419   0.0000   0.0000   0.0000   0.2411
   5.800   0.6289   0.01616   0.00943   0.0033  0.0389  1.0000  -3.4461   0.0000   0.0000   0.0000   0.2406
   5.900   0.6393   0.01618   0.00948   0.0034  0.0382  1.0000  -3.5692   0.0000   0.0000   0.0000   0.2404
   6.000   0.6496   0.01628   0.00961   0.0036  0.0373  1.0000  -3.6875   0.0000   0.0000   0.0000   0.2401
   6.100   0.6596   0.01645   0.00981   0.0039  0.0359  1.0000  -3.8026   0.0000   0.0000   0.0000   0.2398
   6.200   0.6696   0.01664   0.01003   0.0041  0.0342  1.0000  -3.9175   0.0000   0.0000   0.0000   0.2394
   6.300   0.6796   0.01680   0.01022   0.0043  0.0323  1.0000  -4.0361   0.0000   0.0000   0.0000   0.2391
   6.400   0.6896   0.01693   0.01036   0.0045  0.0305  1.0000  -4.1617   0.0000   0.0000   0.0000   0.2389
   6.500   0.6994   0.01708   0.01051   0.0046  0.0289  1.0000  -4.2890   0.0000   0.0000   0.0000   0.2387
   6.600   0.7089   0.01739   0.01084   0.0049  0.0275  1.0000  -4.4040   0.0000   0.0000   0.0000   0.2383
   6.700   0.7175   0.01804   0.01152   0.0052  0.0260  1.0000  -4.4947   0.0000   0.0000   0.0000   0.2378
   6.800   0.7235   0.01986   0.01350   0.0060  0.0243  1.0000  -4.4982   0.0000   0.0000   0.0000   0.2368
   6.900   0.7288   0.02220   0.01609   0.0068  0.0233  1.0000  -4.4667   0.0000   0.0000   0.0000   0.2357
   7.000   0.7390   0.02224   0.01617   0.0070  0.0229  1.0000  -4.5902   0.0000   0.0000   0.0000   0.2355
   7.100   0.7488   0.02246   0.01646   0.0073  0.0225  1.0000  -4.7003   0.0000   0.0000   0.0000   0.2352
   7.200   0.7582   0.02287   0.01693   0.0076  0.0221  1.0000  -4.7964   0.0000   0.0000   0.0000   0.2348
   7.300   0.7673   0.02345   0.01760   0.0079  0.0216  1.0000  -4.8778   0.0000   0.0000   0.0000   0.2344
   7.400   0.7758   0.02421   0.01853   0.0084  0.0211  1.0000  -4.9483   0.0000   0.0000   0.0000   0.2339
   7.500   0.7840   0.02506   0.01950   0.0088  0.0206  1.0000  -5.0071   0.0000   0.0000   0.0000   0.2333
   7.600   0.7922   0.02585   0.02040   0.0092  0.0201  1.0000  -5.0730   0.0000   0.0000   0.0000   0.2328
   7.700   0.8005   0.02653   0.02118   0.0096  0.0194  1.0000  -5.1495   0.0000   0.0000   0.0000   0.2324
   7.800   0.8088   0.02711   0.02185   0.0099  0.0187  1.0000  -5.2377   0.0000   0.0000   0.0000   0.2320
   7.900   0.8172   0.02763   0.02243   0.0102  0.0180  1.0000  -5.3344   0.0000   0.0000   0.0000   0.2317
   8.000   0.8254   0.02818   0.02306   0.0106  0.0174  1.0000  -5.4286   0.0000   0.0000   0.0000   0.2314
   8.100   0.8326   0.02908   0.02407   0.0110  0.0170  1.0000  -5.4897   0.0000   0.0000   0.0000   0.2309
   8.200   0.8389   0.03018   0.02531   0.0115  0.0167  1.0000  -5.5302   0.0000   0.0000   0.0000   0.2303
   8.300   0.8449   0.03134   0.02659   0.0120  0.0164  1.0000  -5.5661   0.0000   0.0000   0.0000   0.2298
   8.400   0.8504   0.03257   0.02797   0.0125  0.0162  1.0000  -5.5937   0.0000   0.0000   0.0000   0.2292
   8.500   0.8553   0.03386   0.02940   0.0130  0.0159  1.0000  -5.6150   0.0000   0.0000   0.0000   0.2286
   8.600   0.8596   0.03522   0.03091   0.0135  0.0157  1.0000  -5.6291   0.0000   0.0000   0.0000   0.2280
   8.700   0.8633   0.03667   0.03251   0.0140  0.0155  1.0000  -5.6342   0.0000   0.0000   0.0000   0.2275
   8.800   0.8661   0.03825   0.03423   0.0145  0.0153  1.0000  -5.6272   0.0000   0.0000   0.0000   0.2269
   8.900   0.8677   0.03999   0.03613   0.0150  0.0152  1.0000  -5.6044   0.0000   0.0000   0.0000   0.2262
   9.000   0.8679   0.04197   0.03827   0.0155  0.0151  1.0000  -5.5582   0.0000   0.0000   0.0000   0.2256
   9.100   0.8659   0.04432   0.04080   0.0160  0.0151  1.0000  -5.4777   0.0000   0.0000   0.0000   0.2250
   9.200   0.8609   0.04718   0.04385   0.0164  0.0152  1.0000  -5.3503   0.0000   0.0000   0.0000   0.2244
   9.300   0.8457   0.05200   0.04895   0.0165  0.0156  1.0000  -5.0520   0.0000   0.0000   0.0000   0.2239
   9.400   0.8286   0.05687   0.05403   0.0159  0.0161  1.0000  -4.7690   0.0000   0.0000   0.0000   0.2243
   9.500   0.8138   0.06068   0.05797   0.0151  0.0165  1.0000  -4.5777   0.0000   0.0000   0.0000   0.2249
   9.600   0.7999   0.06405   0.06144   0.0138  0.0168  1.0000  -4.4307   0.0000   0.0000   0.0000   0.2262
   9.700   0.7859   0.06818   0.06565   0.0105  0.0171  1.0000  -4.2730   0.0000   0.0000   0.0000   0.2300
   9.800   0.7684   0.07675   0.07428   0.0012  0.0178  1.0000  -3.9691   0.0000   0.0000   0.0000   0.2417
   9.900   0.7584   0.08257   0.08008  -0.0039  0.0182  1.0000  -3.7736   0.0000   0.0000   0.0000   0.2484
  10.000   0.7512   0.08667   0.08416  -0.0069  0.0185  1.0000  -3.6425   0.0000   0.0000   0.0000   0.2525
  10.100   0.7452   0.09025   0.08771  -0.0093  0.0188  1.0000  -3.5322   0.0000   0.0000   0.0000   0.2557
  10.200   0.7401   0.09352   0.09097  -0.0113  0.0190  1.0000  -3.4344   0.0000   0.0000   0.0000   0.2585
  10.300   0.7355   0.09654   0.09393  -0.0130  0.0193  1.0000  -3.3465   0.0000   0.0000   0.0000   0.2609
  10.400   0.7314   0.09944   0.09681  -0.0146  0.0195  1.0000  -3.2645   0.0000   0.0000   0.0000   0.2631
  10.500   0.7277   0.10223   0.09959  -0.0161  0.0197  1.0000  -3.1877   0.0000   0.0000   0.0000   0.2651
  10.600   0.7243   0.10493   0.10228  -0.0174  0.0200  1.0000  -3.1151   0.0000   0.0000   0.0000   0.2670
  10.700   0.7213   0.10756   0.10490  -0.0187  0.0202  1.0000  -3.0461   0.0000   0.0000   0.0000   0.2688
  10.800   0.7184   0.11012   0.10744  -0.0198  0.0205  1.0000  -2.9803   0.0000   0.0000   0.0000   0.2705
  10.900   0.7155   0.11262   0.10993  -0.0209  0.0209  1.0000  -2.9167   0.0000   0.0000   0.0000   0.2720
  11.000   0.7124   0.11514   0.11245  -0.0219  0.0213  1.0000  -2.8529   0.0000   0.0000   0.0000   0.2735
  11.400   0.2986   0.04083   0.03861   0.0242  0.0289  1.0000  -1.7944   0.0000   0.0000   0.0000   0.1688
  11.500   0.2940   0.04317   0.04094   0.0226  0.0300  1.0000  -1.6692   0.0000   0.0000   0.0000   0.1731
  11.600   0.2916   0.04510   0.04286   0.0215  0.0309  1.0000  -1.5847   0.0000   0.0000   0.0000   0.1766
  11.700   0.2900   0.04691   0.04466   0.0204  0.0319  1.0000  -1.5131   0.0000   0.0000   0.0000   0.1800
  11.800   0.2892   0.04860   0.04634   0.0195  0.0330  1.0000  -1.4557   0.0000   0.0000   0.0000   0.1831
  11.900   0.2893   0.05021   0.04795   0.0187  0.0345  1.0000  -1.4122   0.0000   0.0000   0.0000   0.1857
  12.000   0.6942   0.13945   0.13668  -0.0291  0.0233  1.0000  -2.3300   0.0000   0.0000   0.0000   0.2842
  12.100   0.6947   0.14144   0.13867  -0.0299  0.0233  1.0000  -2.3011   0.0000   0.0000   0.0000   0.2852
  12.200   0.6954   0.14342   0.14065  -0.0306  0.0233  1.0000  -2.2734   0.0000   0.0000   0.0000   0.2861
  12.300   0.6962   0.14539   0.14261  -0.0314  0.0233  1.0000  -2.2468   0.0000   0.0000   0.0000   0.2871
  12.400   0.6970   0.14733   0.14455  -0.0321  0.0233  1.0000  -2.2212   0.0000   0.0000   0.0000   0.2880
  12.500   0.6979   0.14926   0.14648  -0.0328  0.0233  1.0000  -2.2077   0.0000   0.0000   0.0000   0.2889
  12.600   0.6990   0.15118   0.14839  -0.0336  0.0233  1.0000  -2.1959   0.0000   0.0000   0.0000   0.2898
  12.700   0.7001   0.15308   0.15029  -0.0343  0.0233  1.0000  -2.1849   0.0000   0.0000   0.0000   0.2907
  12.800   0.7012   0.15497   0.15217  -0.0350  0.0233  1.0000  -2.1745   0.0000   0.0000   0.0000   0.2916
  12.900   0.7024   0.15684   0.15404  -0.0357  0.0233  1.0000  -2.1649   0.0000   0.0000   0.0000   0.2924
  13.000   0.7037   0.15869   0.15589  -0.0364  0.0232  1.0000  -2.1558   0.0000   0.0000   0.0000   0.2932
  13.100   0.7050   0.16052   0.15772  -0.0371  0.0232  1.0000  -2.1473   0.0000   0.0000   0.0000   0.2941
  13.200   0.7063   0.16235   0.15959  -0.0378  0.0232  1.0000  -2.1359   0.0000   0.0000   0.0000   0.2949
  13.300   0.7077   0.16417   0.16140  -0.0385  0.0232  1.0000  -2.1271   0.0000   0.0000   0.0000   0.2957
  13.400   0.7092   0.16597   0.16320  -0.0392  0.0232  1.0000  -2.1196   0.0000   0.0000   0.0000   0.2964
  13.500   0.7107   0.16776   0.16499  -0.0398  0.0232  1.0000  -2.1127   0.0000   0.0000   0.0000   0.2972
  13.600   0.7124   0.16955   0.16677  -0.0405  0.0232  1.0000  -2.1065   0.0000   0.0000   0.0000   0.2980
  13.700   0.7140   0.17132   0.16854  -0.0412  0.0232  1.0000  -2.1007   0.0000   0.0000   0.0000   0.2988
  13.800   0.7158   0.17309   0.17031  -0.0419  0.0232  1.0000  -2.0953   0.0000   0.0000   0.0000   0.2995
  13.900   0.7176   0.17484   0.17206  -0.0426  0.0232  1.0000  -2.0904   0.0000   0.0000   0.0000   0.3003
  14.000   0.7194   0.17659   0.17380  -0.0433  0.0231  1.0000  -2.0858   0.0000   0.0000   0.0000   0.3010
  14.100   0.7213   0.17832   0.17553  -0.0441  0.0231  1.0000  -2.0815   0.0000   0.0000   0.0000   0.3018
  14.200   0.7233   0.18003   0.17725  -0.0448  0.0231  1.0000  -2.0775   0.0000   0.0000   0.0000   0.3025
  14.300   0.7253   0.18174   0.17895  -0.0455  0.0231  1.0000  -2.0737   0.0000   0.0000   0.0000   0.3032
  14.400   0.7273   0.18343   0.18064  -0.0462  0.0231  1.0000  -2.0702   0.0000   0.0000   0.0000   0.3039
  14.500   0.7294   0.18510   0.18231  -0.0469  0.0230  1.0000  -2.0669   0.0000   0.0000   0.0000   0.3047
  14.600   0.7315   0.18676   0.18397  -0.0476  0.0230  1.0000  -2.0638   0.0000   0.0000   0.0000   0.3054
  14.700   0.7336   0.18840   0.18561  -0.0484  0.0230  1.0000  -2.0608   0.0000   0.0000   0.0000   0.3061
  14.800   0.7359   0.19002   0.18723  -0.0491  0.0230  1.0000  -2.0580   0.0000   0.0000   0.0000   0.3068
  14.900   0.7381   0.19162   0.18882  -0.0498  0.0229  1.0000  -2.0553   0.0000   0.0000   0.0000   0.3075
  15.000   0.7404   0.19320   0.19040  -0.0506  0.0229  1.0000  -2.0526   0.0000   0.0000   0.0000   0.3082


