xflr5 v6.61

 Calculated polar for: NACA 0008

 1 1 Reynolds number fixed          Mach number fixed         

 xtrf =   1.000 (top)        1.000 (bottom)
 Mach =   0.000     Re =     0.250 e 6     Ncrit =   9.000

  alpha     CL        CD       CDp       Cm    Top Xtr Bot Xtr   Cpmin    Chinge    XCp    
 ------- -------- --------- --------- -------- ------- ------- -------- --------- ---------
 -13.000  -0.7057   0.15788   0.15458   0.0389  1.0000  0.0289  -2.0019   0.0000   0.0000   0.0000   0.2968
 -12.900  -0.7043   0.15633   0.15303   0.0383  1.0000  0.0293  -1.9958   0.0000   0.0000   0.0000   0.2962
 -12.800  -0.7029   0.15476   0.15146   0.0377  1.0000  0.0298  -1.9914   0.0000   0.0000   0.0000   0.2955
 -12.700  -0.7017   0.15316   0.14987   0.0371  1.0000  0.0302  -1.9985   0.0000   0.0000   0.0000   0.2948
 -12.600  -0.7004   0.15153   0.14825   0.0365  1.0000  0.0307  -2.0084   0.0000   0.0000   0.0000   0.2941
 -12.500  -0.6993   0.14988   0.14660   0.0358  1.0000  0.0312  -2.0201   0.0000   0.0000   0.0000   0.2933
 -12.400  -0.6983   0.14820   0.14492   0.0351  1.0000  0.0318  -2.0338   0.0000   0.0000   0.0000   0.2924
 -12.300  -0.6974   0.14650   0.14323   0.0343  1.0000  0.0324  -2.0496   0.0000   0.0000   0.0000   0.2915
 -12.200  -0.6966   0.14477   0.14150   0.0336  1.0000  0.0330  -2.0678   0.0000   0.0000   0.0000   0.2905
 -12.100  -0.6959   0.14300   0.13974   0.0327  1.0000  0.0337  -2.0891   0.0000   0.0000   0.0000   0.2894
 -12.000  -0.6954   0.14120   0.13795   0.0318  1.0000  0.0345  -2.1146   0.0000   0.0000   0.0000   0.2882
 -11.900  -0.6950   0.13937   0.13612   0.0306  1.0000  0.0354  -2.1467   0.0000   0.0000   0.0000   0.2866
 -11.800  -0.6946   0.13757   0.13433   0.0290  1.0000  0.0367  -2.1919   0.0000   0.0000   0.0000   0.2844
 -11.700  -0.6918   0.13650   0.13327   0.0268  1.0000  0.0382  -2.2327   0.0000   0.0000   0.0000   0.2815
 -11.600  -0.6903   0.13495   0.13172   0.0258  1.0000  0.0385  -2.2566   0.0000   0.0000   0.0000   0.2800
 -11.100  -0.3115   0.04499   0.04231  -0.0236  1.0000  0.0383  -1.7733   0.0000   0.0000   0.0000   0.1732
 -11.000  -0.3138   0.04295   0.04028  -0.0246  1.0000  0.0377  -1.8324   0.0000   0.0000   0.0000   0.1706
 -10.900  -0.3160   0.04114   0.03848  -0.0256  1.0000  0.0374  -1.8869   0.0000   0.0000   0.0000   0.1679
 -10.800  -0.3187   0.03932   0.03667  -0.0267  1.0000  0.0371  -1.9457   0.0000   0.0000   0.0000   0.1651
 -10.700  -0.3219   0.03744   0.03480  -0.0279  1.0000  0.0368  -2.0114   0.0000   0.0000   0.0000   0.1621
 -10.600  -0.3261   0.03545   0.03283  -0.0292  1.0000  0.0365  -2.0871   0.0000   0.0000   0.0000   0.1591
 -10.500  -0.3314   0.03329   0.03068  -0.0307  1.0000  0.0361  -2.1783   0.0000   0.0000   0.0000   0.1558
 -10.400  -0.3388   0.03074   0.02814  -0.0326  1.0000  0.0355  -2.3015   0.0000   0.0000   0.0000   0.1518
 -10.300  -0.3507   0.02748   0.02489  -0.0355  1.0000  0.0345  -2.4832   0.0000   0.0000   0.0000   0.1466
 -10.200  -0.3647   0.02447   0.02187  -0.0386  1.0000  0.0335  -2.6575   0.0000   0.0000   0.0000   0.1416
 -10.000  -0.7541   0.07885   0.07586  -0.0035  1.0000  0.0245  -4.0033   0.0000   0.0000   0.0000   0.2383
  -9.900  -0.7557   0.07572   0.07268  -0.0070  1.0000  0.0242  -4.0714   0.0000   0.0000   0.0000   0.2338
  -9.800  -0.7582   0.07325   0.07017  -0.0097  1.0000  0.0240  -4.1122   0.0000   0.0000   0.0000   0.2303
  -9.700  -0.7614   0.07115   0.06802  -0.0119  1.0000  0.0239  -4.1429   0.0000   0.0000   0.0000   0.2277
  -9.600  -0.7650   0.06932   0.06614  -0.0134  1.0000  0.0238  -4.1674   0.0000   0.0000   0.0000   0.2258
  -9.500  -0.7688   0.06769   0.06446  -0.0145  1.0000  0.0238  -4.1876   0.0000   0.0000   0.0000   0.2247
  -9.400  -0.7727   0.06621   0.06294  -0.0150  1.0000  0.0237  -4.2045   0.0000   0.0000   0.0000   0.2242
  -9.300  -0.7763   0.06483   0.06150  -0.0151  1.0000  0.0236  -4.2191   0.0000   0.0000   0.0000   0.2242
  -9.200  -0.7791   0.06343   0.06005  -0.0152  1.0000  0.0236  -4.2323   0.0000   0.0000   0.0000   0.2243
  -9.100  -0.7808   0.06193   0.05848  -0.0153  1.0000  0.0235  -4.2446   0.0000   0.0000   0.0000   0.2242
  -9.000  -0.7821   0.06040   0.05688  -0.0154  1.0000  0.0235  -4.2564   0.0000   0.0000   0.0000   0.2242
  -8.900  -0.7832   0.05882   0.05522  -0.0155  1.0000  0.0234  -4.2695   0.0000   0.0000   0.0000   0.2243
  -8.800  -0.7855   0.05692   0.05322  -0.0155  1.0000  0.0234  -4.3013   0.0000   0.0000   0.0000   0.2244
  -8.700  -0.7886   0.05473   0.05092  -0.0154  1.0000  0.0234  -4.3485   0.0000   0.0000   0.0000   0.2246
  -8.600  -0.7921   0.05234   0.04839  -0.0153  1.0000  0.0235  -4.4067   0.0000   0.0000   0.0000   0.2249
  -8.500  -0.7957   0.04977   0.04566  -0.0151  1.0000  0.0236  -4.4737   0.0000   0.0000   0.0000   0.2253
  -8.400  -0.7991   0.04705   0.04277  -0.0148  1.0000  0.0237  -4.5473   0.0000   0.0000   0.0000   0.2257
  -8.300  -0.8021   0.04425   0.03977  -0.0144  1.0000  0.0239  -4.6237   0.0000   0.0000   0.0000   0.2264
  -8.200  -0.8042   0.04146   0.03677  -0.0139  1.0000  0.0241  -4.6964   0.0000   0.0000   0.0000   0.2270
  -8.100  -0.8048   0.03883   0.03392  -0.0133  1.0000  0.0243  -4.7559   0.0000   0.0000   0.0000   0.2278
  -8.000  -0.8036   0.03650   0.03139  -0.0128  1.0000  0.0246  -4.7938   0.0000   0.0000   0.0000   0.2285
  -7.900  -0.8006   0.03452   0.02922  -0.0122  1.0000  0.0249  -4.8097   0.0000   0.0000   0.0000   0.2292
  -7.800  -0.7962   0.03279   0.02732  -0.0116  1.0000  0.0251  -4.8122   0.0000   0.0000   0.0000   0.2299
  -7.700  -0.7910   0.03117   0.02552  -0.0111  1.0000  0.0253  -4.8087   0.0000   0.0000   0.0000   0.2306
  -7.600  -0.7854   0.02963   0.02381  -0.0105  1.0000  0.0256  -4.7958   0.0000   0.0000   0.0000   0.2312
  -7.500  -0.7791   0.02827   0.02231  -0.0100  1.0000  0.0260  -4.7666   0.0000   0.0000   0.0000   0.2318
  -7.400  -0.7720   0.02714   0.02099  -0.0095  1.0000  0.0265  -4.7146   0.0000   0.0000   0.0000   0.2324
  -7.300  -0.7642   0.02624   0.02001  -0.0091  1.0000  0.0272  -4.6495   0.0000   0.0000   0.0000   0.2328
  -7.200  -0.7561   0.02548   0.01917  -0.0088  1.0000  0.0279  -4.5753   0.0000   0.0000   0.0000   0.2333
  -7.100  -0.7476   0.02479   0.01840  -0.0084  1.0000  0.0287  -4.4976   0.0000   0.0000   0.0000   0.2337
  -7.000  -0.7389   0.02413   0.01765  -0.0081  1.0000  0.0296  -4.4194   0.0000   0.0000   0.0000   0.2341
  -6.900  -0.7301   0.02347   0.01691  -0.0077  1.0000  0.0305  -4.3418   0.0000   0.0000   0.0000   0.2346
  -6.800  -0.7211   0.02283   0.01618  -0.0073  1.0000  0.0316  -4.2637   0.0000   0.0000   0.0000   0.2350
  -6.700  -0.7119   0.02223   0.01550  -0.0070  1.0000  0.0328  -4.1822   0.0000   0.0000   0.0000   0.2355
  -6.600  -0.7024   0.02189   0.01510  -0.0067  1.0000  0.0344  -4.0810   0.0000   0.0000   0.0000   0.2358
  -6.500  -0.6926   0.02167   0.01483  -0.0064  1.0000  0.0362  -3.9742   0.0000   0.0000   0.0000   0.2361
  -6.400  -0.6826   0.02153   0.01463  -0.0062  1.0000  0.0376  -3.8659   0.0000   0.0000   0.0000   0.2364
  -6.300  -0.6723   0.02148   0.01453  -0.0059  1.0000  0.0386  -3.7552   0.0000   0.0000   0.0000   0.2367
  -6.200  -0.6621   0.02146   0.01446  -0.0056  1.0000  0.0393  -3.6452   0.0000   0.0000   0.0000   0.2371
  -6.100  -0.6561   0.01871   0.01146  -0.0049  1.0000  0.0419  -3.6741   0.0000   0.0000   0.0000   0.2382
  -6.000  -0.6476   0.01781   0.01051  -0.0045  1.0000  0.0442  -3.6005   0.0000   0.0000   0.0000   0.2388
  -5.900  -0.6383   0.01737   0.01005  -0.0042  1.0000  0.0460  -3.5003   0.0000   0.0000   0.0000   0.2393
  -5.800  -0.6288   0.01704   0.00970  -0.0039  1.0000  0.0478  -3.3955   0.0000   0.0000   0.0000   0.2397
  -5.700  -0.6190   0.01679   0.00943  -0.0037  1.0000  0.0498  -3.2856   0.0000   0.0000   0.0000   0.2400
  -5.600  -0.6092   0.01660   0.00921  -0.0034  1.0000  0.0519  -3.1739   0.0000   0.0000   0.0000   0.2404
  -5.500  -0.5993   0.01639   0.00897  -0.0032  1.0000  0.0538  -3.0746   0.0000   0.0000   0.0000   0.2407
  -5.400  -0.5894   0.01614   0.00868  -0.0029  1.0000  0.0553  -2.9882   0.0000   0.0000   0.0000   0.2412
  -5.300  -0.5796   0.01586   0.00836  -0.0026  1.0000  0.0563  -2.9047   0.0000   0.0000   0.0000   0.2416
  -5.200  -0.5699   0.01556   0.00801  -0.0023  1.0000  0.0570  -2.8231   0.0000   0.0000   0.0000   0.2422
  -5.100  -0.5602   0.01527   0.00764  -0.0020  1.0000  0.0576  -2.7393   0.0000   0.0000   0.0000   0.2427
  -5.000  -0.5502   0.01509   0.00743  -0.0018  1.0000  0.0583  -2.6523   0.0000   0.0000   0.0000   0.2432
  -4.900  -0.5413   0.01460   0.00691  -0.0013  1.0000  0.0598  -2.5811   0.0000   0.0000   0.0000   0.2440
  -4.800  -0.5331   0.01396   0.00624  -0.0008  1.0000  0.0623  -2.5203   0.0000   0.0000   0.0000   0.2450
  -4.700  -0.5243   0.01352   0.00580  -0.0003  1.0000  0.0646  -2.4505   0.0000   0.0000   0.0000   0.2459
  -4.600  -0.5151   0.01319   0.00546   0.0001  1.0000  0.0671  -2.3764   0.0000   0.0000   0.0000   0.2467
  -4.500  -0.5057   0.01292   0.00519   0.0004  1.0000  0.0701  -2.2993   0.0000   0.0000   0.0000   0.2475
  -4.400  -0.4962   0.01268   0.00494   0.0007  1.0000  0.0737  -2.2221   0.0000   0.0000   0.0000   0.2482
  -4.300  -0.4865   0.01248   0.00471   0.0011  1.0000  0.0774  -2.1448   0.0000   0.0000   0.0000   0.2490
  -4.200  -0.4767   0.01230   0.00450   0.0014  1.0000  0.0808  -2.0672   0.0000   0.0000   0.0000   0.2498
  -4.100  -0.4681   0.01187   0.00414   0.0018  1.0000  0.0916  -2.0009   0.0000   0.0000   0.0000   0.2508
  -4.000  -0.4588   0.01157   0.00389   0.0022  1.0000  0.1060  -1.9313   0.0000   0.0000   0.0000   0.2517
  -3.900  -0.4505   0.01109   0.00365   0.0026  1.0000  0.1427  -1.8759   0.0000   0.0000   0.0000   0.2527
  -3.800  -0.4421   0.01066   0.00346   0.0029  1.0000  0.1929  -1.8166   0.0000   0.0000   0.0000   0.2536
  -3.600  -0.4246   0.01000   0.00320   0.0035  1.0000  0.2797  -1.6909   0.0000   0.0000   0.0000   0.2554
  -3.500  -0.4156   0.00974   0.00310   0.0038  1.0000  0.3166  -1.6264   0.0000   0.0000   0.0000   0.2563
  -3.400  -0.4065   0.00952   0.00298   0.0041  1.0000  0.3520  -1.5610   0.0000   0.0000   0.0000   0.2573
  -3.300  -0.3974   0.00930   0.00290   0.0044  1.0000  0.3851  -1.4976   0.0000   0.0000   0.0000   0.2584
  -3.200  -0.3882   0.00911   0.00283   0.0047  1.0000  0.4176  -1.4535   0.0000   0.0000   0.0000   0.2595
  -3.100  -0.3789   0.00893   0.00277   0.0050  1.0000  0.4484  -1.4123   0.0000   0.0000   0.0000   0.2607
  -3.000  -0.3699   0.00874   0.00272   0.0054  1.0000  0.4809  -1.3716   0.0000   0.0000   0.0000   0.2621
  -2.900  -0.3608   0.00856   0.00267   0.0058  1.0000  0.5153  -1.3309   0.0000   0.0000   0.0000   0.2636
  -2.800  -0.3518   0.00837   0.00263   0.0062  1.0000  0.5496  -1.2906   0.0000   0.0000   0.0000   0.2653
  -2.700  -0.3428   0.00820   0.00260   0.0067  1.0000  0.5852  -1.2504   0.0000   0.0000   0.0000   0.2672
  -2.600  -0.3340   0.00802   0.00259   0.0072  1.0000  0.6195  -1.2107   0.0000   0.0000   0.0000   0.2693
  -2.500  -0.3250   0.00788   0.00257   0.0077  1.0000  0.6513  -1.1709   0.0000   0.0000   0.0000   0.2715
  -2.400  -0.3158   0.00776   0.00256   0.0082  1.0000  0.6792  -1.1310   0.0000   0.0000   0.0000   0.2738
  -2.300  -0.3065   0.00765   0.00255   0.0087  1.0000  0.7043  -1.0914   0.0000   0.0000   0.0000   0.2763
  -2.200  -0.2973   0.00756   0.00254   0.0092  1.0000  0.7284  -1.0520   0.0000   0.0000   0.0000   0.2789
  -2.100  -0.2883   0.00746   0.00253   0.0098  1.0000  0.7542  -1.0136   0.0000   0.0000   0.0000   0.2821
  -2.000  -0.2794   0.00738   0.00255   0.0105  1.0000  0.7810  -0.9754   0.0000   0.0000   0.0000   0.2857
  -1.900  -0.2706   0.00732   0.00258   0.0113  1.0000  0.8071  -0.9376   0.0000   0.0000   0.0000   0.2897
  -1.800  -0.2619   0.00728   0.00262   0.0121  1.0000  0.8323  -0.9002   0.0000   0.0000   0.0000   0.2941
  -1.700  -0.2531   0.00726   0.00267   0.0128  1.0000  0.8557  -0.8629   0.0000   0.0000   0.0000   0.2989
  -1.600  -0.2439   0.00726   0.00271   0.0136  1.0000  0.8769  -0.8252   0.0000   0.0000   0.0000   0.3038
  -1.500  -0.2339   0.00728   0.00276   0.0141  1.0000  0.8956  -0.7865   0.0000   0.0000   0.0000   0.3084
  -1.400  -0.2230   0.00731   0.00281   0.0144  1.0000  0.9139  -0.7465   0.0000   0.0000   0.0000   0.3129
  -1.300  -0.2103   0.00736   0.00286   0.0144  1.0000  0.9308  -0.7038   0.0000   0.0000   0.0000   0.3165
  -1.200  -0.1936   0.00741   0.00291   0.0134  1.0000  0.9437  -0.6545   0.0000   0.0000   0.0000   0.3176
  -1.100  -0.1792   0.00746   0.00294   0.0129  1.0000  0.9561  -0.6099   0.0000   0.0000   0.0000   0.3201
  -1.000  -0.1590   0.00750   0.00296   0.0111  1.0000  0.9635  -0.5633   0.0000   0.0000   0.0000   0.3178
  -0.900  -0.1412   0.00754   0.00297   0.0097  1.0000  0.9722  -0.5265   0.0000   0.0000   0.0000   0.3171
  -0.800  -0.1213   0.00757   0.00298   0.0079  1.0000  0.9782  -0.4872   0.0000   0.0000   0.0000   0.3135
  -0.700  -0.0998   0.00759   0.00299   0.0057  1.0000  0.9828  -0.4463   0.0000   0.0000   0.0000   0.3057
  -0.600  -0.0787   0.00761   0.00299   0.0037  1.0000  0.9875  -0.4067   0.0000   0.0000   0.0000   0.2946
  -0.500  -0.0582   0.00763   0.00299   0.0017  1.0000  0.9918  -0.3682   0.0000   0.0000   0.0000   0.2764
  -0.400  -0.0364   0.00762   0.00298  -0.0006  1.0000  0.9950  -0.3384   0.0000   0.0000   0.0000   0.2307
  -0.300  -0.0153   0.00762   0.00297  -0.0028  1.0000  0.9986  -0.3138   0.0000   0.0000   0.0000   0.0638
  -0.200  -0.0045   0.00760   0.00295  -0.0030  1.0000  1.0000  -0.2979   0.0000   0.0000   0.0000  -0.4191
  -0.100  -0.0021   0.00758   0.00293  -0.0015  1.0000  1.0000  -0.2888   0.0000   0.0000   0.0000  -0.4786
   0.000  -0.0000   0.00757   0.00292   0.0000  1.0000  1.0000  -0.2802   0.0000   0.0000   0.0000   0.4237
   0.100   0.0021   0.00758   0.00293   0.0015  1.0000  1.0000  -0.2888   0.0000   0.0000   0.0000  -0.4784
   0.200   0.0045   0.00760   0.00295   0.0030  1.0000  1.0000  -0.2979   0.0000   0.0000   0.0000  -0.4187
   0.300   0.0153   0.00761   0.00297   0.0028  0.9986  1.0000  -0.3138   0.0000   0.0000   0.0000   0.0637
   0.400   0.0364   0.00762   0.00298   0.0006  0.9950  1.0000  -0.3384   0.0000   0.0000   0.0000   0.2306
   0.500   0.0582   0.00762   0.00299  -0.0017  0.9918  1.0000  -0.3682   0.0000   0.0000   0.0000   0.2764
   0.600   0.0787   0.00761   0.00299  -0.0037  0.9875  1.0000  -0.4067   0.0000   0.0000   0.0000   0.2946
   0.700   0.0997   0.00759   0.00299  -0.0057  0.9828  1.0000  -0.4463   0.0000   0.0000   0.0000   0.3057
   0.800   0.1213   0.00757   0.00298  -0.0079  0.9782  1.0000  -0.4872   0.0000   0.0000   0.0000   0.3135
   0.900   0.1412   0.00754   0.00297  -0.0097  0.9722  1.0000  -0.5265   0.0000   0.0000   0.0000   0.3171
   1.000   0.1590   0.00750   0.00296  -0.0111  0.9635  1.0000  -0.5633   0.0000   0.0000   0.0000   0.3178
   1.100   0.1792   0.00746   0.00294  -0.0129  0.9561  1.0000  -0.6099   0.0000   0.0000   0.0000   0.3201
   1.200   0.1936   0.00741   0.00291  -0.0134  0.9437  1.0000  -0.6545   0.0000   0.0000   0.0000   0.3176
   1.300   0.2103   0.00736   0.00286  -0.0143  0.9308  1.0000  -0.7037   0.0000   0.0000   0.0000   0.3165
   1.400   0.2229   0.00731   0.00281  -0.0144  0.9139  1.0000  -0.7465   0.0000   0.0000   0.0000   0.3129
   1.500   0.2338   0.00728   0.00276  -0.0141  0.8955  1.0000  -0.7864   0.0000   0.0000   0.0000   0.3084
   1.600   0.2438   0.00726   0.00271  -0.0135  0.8769  1.0000  -0.8252   0.0000   0.0000   0.0000   0.3038
   1.700   0.2531   0.00726   0.00267  -0.0128  0.8557  1.0000  -0.8628   0.0000   0.0000   0.0000   0.2989
   1.800   0.2619   0.00728   0.00262  -0.0120  0.8323  1.0000  -0.9001   0.0000   0.0000   0.0000   0.2941
   1.900   0.2706   0.00732   0.00258  -0.0113  0.8071  1.0000  -0.9375   0.0000   0.0000   0.0000   0.2897
   2.000   0.2794   0.00738   0.00255  -0.0105  0.7810  1.0000  -0.9753   0.0000   0.0000   0.0000   0.2856
   2.100   0.2882   0.00746   0.00253  -0.0098  0.7543  1.0000  -1.0135   0.0000   0.0000   0.0000   0.2820
   2.200   0.2973   0.00756   0.00254  -0.0092  0.7284  1.0000  -1.0520   0.0000   0.0000   0.0000   0.2789
   2.300   0.3065   0.00765   0.00255  -0.0087  0.7043  1.0000  -1.0913   0.0000   0.0000   0.0000   0.2762
   2.400   0.3157   0.00776   0.00256  -0.0082  0.6793  1.0000  -1.1309   0.0000   0.0000   0.0000   0.2738
   2.500   0.3249   0.00788   0.00257  -0.0077  0.6514  1.0000  -1.1708   0.0000   0.0000   0.0000   0.2715
   2.600   0.3340   0.00802   0.00259  -0.0072  0.6195  1.0000  -1.2106   0.0000   0.0000   0.0000   0.2693
   2.700   0.3428   0.00820   0.00260  -0.0067  0.5853  1.0000  -1.2503   0.0000   0.0000   0.0000   0.2671
   2.800   0.3518   0.00837   0.00263  -0.0062  0.5497  1.0000  -1.2905   0.0000   0.0000   0.0000   0.2653
   2.900   0.3607   0.00856   0.00267  -0.0058  0.5154  1.0000  -1.3308   0.0000   0.0000   0.0000   0.2636
   3.000   0.3698   0.00874   0.00272  -0.0054  0.4809  1.0000  -1.3715   0.0000   0.0000   0.0000   0.2621
   3.100   0.3789   0.00893   0.00277  -0.0050  0.4485  1.0000  -1.4122   0.0000   0.0000   0.0000   0.2607
   3.200   0.3882   0.00911   0.00283  -0.0047  0.4177  1.0000  -1.4534   0.0000   0.0000   0.0000   0.2595
   3.300   0.3974   0.00930   0.00290  -0.0044  0.3852  1.0000  -1.4974   0.0000   0.0000   0.0000   0.2584
   3.400   0.4064   0.00952   0.00298  -0.0041  0.3521  1.0000  -1.5608   0.0000   0.0000   0.0000   0.2573
   3.500   0.4156   0.00974   0.00310  -0.0038  0.3167  1.0000  -1.6263   0.0000   0.0000   0.0000   0.2563
   3.600   0.4246   0.01000   0.00320  -0.0035  0.2798  1.0000  -1.6907   0.0000   0.0000   0.0000   0.2553
   3.800   0.4420   0.01066   0.00346  -0.0029  0.1930  1.0000  -1.8165   0.0000   0.0000   0.0000   0.2536
   3.900   0.4504   0.01109   0.00365  -0.0025  0.1428  1.0000  -1.8758   0.0000   0.0000   0.0000   0.2527
   4.000   0.4588   0.01157   0.00389  -0.0022  0.1061  1.0000  -1.9312   0.0000   0.0000   0.0000   0.2517
   4.100   0.4680   0.01187   0.00414  -0.0018  0.0916  1.0000  -2.0007   0.0000   0.0000   0.0000   0.2508
   4.200   0.4767   0.01230   0.00450  -0.0014  0.0808  1.0000  -2.0671   0.0000   0.0000   0.0000   0.2497
   4.300   0.4865   0.01248   0.00471  -0.0011  0.0774  1.0000  -2.1446   0.0000   0.0000   0.0000   0.2490
   4.400   0.4961   0.01268   0.00494  -0.0007  0.0737  1.0000  -2.2220   0.0000   0.0000   0.0000   0.2482
   4.500   0.5057   0.01292   0.00519  -0.0004  0.0701  1.0000  -2.2992   0.0000   0.0000   0.0000   0.2475
   4.600   0.5151   0.01319   0.00546  -0.0000  0.0671  1.0000  -2.3762   0.0000   0.0000   0.0000   0.2467
   4.700   0.5242   0.01352   0.00580   0.0003  0.0646  1.0000  -2.4504   0.0000   0.0000   0.0000   0.2459
   4.800   0.5330   0.01396   0.00624   0.0008  0.0623  1.0000  -2.5202   0.0000   0.0000   0.0000   0.2450
   4.900   0.5412   0.01460   0.00691   0.0013  0.0598  1.0000  -2.5811   0.0000   0.0000   0.0000   0.2440
   5.000   0.5502   0.01509   0.00743   0.0018  0.0583  1.0000  -2.6522   0.0000   0.0000   0.0000   0.2432
   5.100   0.5601   0.01527   0.00764   0.0020  0.0576  1.0000  -2.7392   0.0000   0.0000   0.0000   0.2427
   5.200   0.5699   0.01556   0.00801   0.0023  0.0570  1.0000  -2.8231   0.0000   0.0000   0.0000   0.2422
   5.300   0.5796   0.01586   0.00836   0.0026  0.0563  1.0000  -2.9047   0.0000   0.0000   0.0000   0.2416
   5.400   0.5894   0.01614   0.00868   0.0029  0.0553  1.0000  -2.9882   0.0000   0.0000   0.0000   0.2411
   5.500   0.5993   0.01639   0.00896   0.0032  0.0538  1.0000  -3.0746   0.0000   0.0000   0.0000   0.2407
   5.600   0.6092   0.01660   0.00921   0.0034  0.0519  1.0000  -3.1738   0.0000   0.0000   0.0000   0.2404
   5.700   0.6190   0.01679   0.00943   0.0037  0.0498  1.0000  -3.2856   0.0000   0.0000   0.0000   0.2400
   5.800   0.6287   0.01704   0.00970   0.0039  0.0478  1.0000  -3.3955   0.0000   0.0000   0.0000   0.2397
   5.900   0.6383   0.01737   0.01005   0.0042  0.0460  1.0000  -3.5003   0.0000   0.0000   0.0000   0.2393
   6.000   0.6476   0.01781   0.01051   0.0045  0.0442  1.0000  -3.6005   0.0000   0.0000   0.0000   0.2388
   6.100   0.6561   0.01871   0.01146   0.0049  0.0419  1.0000  -3.6741   0.0000   0.0000   0.0000   0.2382
   6.200   0.6621   0.02146   0.01447   0.0056  0.0393  1.0000  -3.6452   0.0000   0.0000   0.0000   0.2371
   6.300   0.6723   0.02148   0.01453   0.0059  0.0386  1.0000  -3.7552   0.0000   0.0000   0.0000   0.2368
   6.400   0.6826   0.02153   0.01463   0.0062  0.0376  1.0000  -3.8660   0.0000   0.0000   0.0000   0.2364
   6.500   0.6926   0.02167   0.01483   0.0064  0.0362  1.0000  -3.9742   0.0000   0.0000   0.0000   0.2361
   6.600   0.7024   0.02189   0.01510   0.0067  0.0344  1.0000  -4.0811   0.0000   0.0000   0.0000   0.2358
   6.700   0.7119   0.02223   0.01550   0.0070  0.0328  1.0000  -4.1823   0.0000   0.0000   0.0000   0.2355
   6.800   0.7211   0.02283   0.01618   0.0073  0.0316  1.0000  -4.2638   0.0000   0.0000   0.0000   0.2350
   6.900   0.7301   0.02348   0.01691   0.0077  0.0305  1.0000  -4.3419   0.0000   0.0000   0.0000   0.2346
   7.000   0.7389   0.02413   0.01765   0.0080  0.0296  1.0000  -4.4195   0.0000   0.0000   0.0000   0.2341
   7.100   0.7476   0.02479   0.01840   0.0084  0.0287  1.0000  -4.4977   0.0000   0.0000   0.0000   0.2337
   7.200   0.7561   0.02548   0.01917   0.0088  0.0279  1.0000  -4.5754   0.0000   0.0000   0.0000   0.2333
   7.300   0.7643   0.02624   0.02001   0.0091  0.0272  1.0000  -4.6497   0.0000   0.0000   0.0000   0.2328
   7.400   0.7720   0.02714   0.02100   0.0095  0.0265  1.0000  -4.7147   0.0000   0.0000   0.0000   0.2324
   7.500   0.7791   0.02827   0.02231   0.0100  0.0260  1.0000  -4.7667   0.0000   0.0000   0.0000   0.2318
   7.600   0.7854   0.02963   0.02382   0.0105  0.0256  1.0000  -4.7959   0.0000   0.0000   0.0000   0.2312
   7.700   0.7911   0.03118   0.02552   0.0110  0.0253  1.0000  -4.8088   0.0000   0.0000   0.0000   0.2306
   7.800   0.7962   0.03280   0.02732   0.0116  0.0251  1.0000  -4.8123   0.0000   0.0000   0.0000   0.2299
   7.900   0.8007   0.03452   0.02923   0.0122  0.0249  1.0000  -4.8097   0.0000   0.0000   0.0000   0.2292
   8.000   0.8037   0.03651   0.03140   0.0127  0.0246  1.0000  -4.7937   0.0000   0.0000   0.0000   0.2285
   8.100   0.8049   0.03884   0.03393   0.0133  0.0243  1.0000  -4.7556   0.0000   0.0000   0.0000   0.2278
   8.200   0.8042   0.04148   0.03678   0.0139  0.0241  1.0000  -4.6959   0.0000   0.0000   0.0000   0.2271
   8.300   0.8022   0.04427   0.03979   0.0144  0.0238  1.0000  -4.6231   0.0000   0.0000   0.0000   0.2264
   8.400   0.7992   0.04708   0.04280   0.0148  0.0237  1.0000  -4.5465   0.0000   0.0000   0.0000   0.2258
   8.500   0.7958   0.04980   0.04570   0.0151  0.0236  1.0000  -4.4728   0.0000   0.0000   0.0000   0.2253
   8.600   0.7922   0.05237   0.04843   0.0153  0.0235  1.0000  -4.4058   0.0000   0.0000   0.0000   0.2249
   8.700   0.7888   0.05477   0.05096   0.0154  0.0234  1.0000  -4.3476   0.0000   0.0000   0.0000   0.2247
   8.800   0.7857   0.05695   0.05326   0.0154  0.0234  1.0000  -4.3006   0.0000   0.0000   0.0000   0.2245
   8.900   0.7834   0.05886   0.05526   0.0154  0.0234  1.0000  -4.2692   0.0000   0.0000   0.0000   0.2244
   9.000   0.7824   0.06043   0.05691   0.0154  0.0235  1.0000  -4.2564   0.0000   0.0000   0.0000   0.2243
   9.100   0.7812   0.06196   0.05851   0.0153  0.0235  1.0000  -4.2446   0.0000   0.0000   0.0000   0.2244
   9.200   0.7795   0.06347   0.06008   0.0151  0.0236  1.0000  -4.2323   0.0000   0.0000   0.0000   0.2244
   9.300   0.7767   0.06487   0.06154   0.0150  0.0236  1.0000  -4.2191   0.0000   0.0000   0.0000   0.2244
   9.400   0.7731   0.06626   0.06298   0.0149  0.0237  1.0000  -4.2045   0.0000   0.0000   0.0000   0.2244
   9.500   0.7694   0.06774   0.06452   0.0143  0.0238  1.0000  -4.1875   0.0000   0.0000   0.0000   0.2249
   9.600   0.7656   0.06937   0.06620   0.0133  0.0238  1.0000  -4.1673   0.0000   0.0000   0.0000   0.2261
   9.700   0.7621   0.07122   0.06809   0.0117  0.0239  1.0000  -4.1427   0.0000   0.0000   0.0000   0.2279
   9.800   0.7590   0.07333   0.07025   0.0095  0.0240  1.0000  -4.1118   0.0000   0.0000   0.0000   0.2306
   9.900   0.7565   0.07582   0.07278   0.0067  0.0242  1.0000  -4.0703   0.0000   0.0000   0.0000   0.2341
  10.000   0.7551   0.07903   0.07605   0.0031  0.0245  1.0000  -3.9986   0.0000   0.0000   0.0000   0.2388
  10.100   0.3660   0.01850   0.01587   0.0440  0.0329  1.0000  -2.7987   0.0000   0.0000   0.0000   0.1273
  10.200   0.3532   0.02048   0.01789   0.0416  0.0336  1.0000  -2.6769   0.0000   0.0000   0.0000   0.1301
  10.300   0.3399   0.02290   0.02032   0.0388  0.0345  1.0000  -2.5281   0.0000   0.0000   0.0000   0.1341
  10.400   0.3271   0.02572   0.02315   0.0358  0.0355  1.0000  -2.3572   0.0000   0.0000   0.0000   0.1389
  10.500   0.3163   0.02870   0.02612   0.0333  0.0365  1.0000  -2.1843   0.0000   0.0000   0.0000   0.1437
  10.600   0.3092   0.03108   0.02848   0.0315  0.0372  1.0000  -2.0656   0.0000   0.0000   0.0000   0.1473
  10.700   0.3044   0.03311   0.03051   0.0300  0.0376  1.0000  -1.9779   0.0000   0.0000   0.0000   0.1506
  10.800   0.3008   0.03495   0.03233   0.0288  0.0379  1.0000  -1.9079   0.0000   0.0000   0.0000   0.1536
  10.900   0.2983   0.03666   0.03403   0.0277  0.0380  1.0000  -1.8491   0.0000   0.0000   0.0000   0.1566
  11.000   0.2962   0.03834   0.03571   0.0267  0.0382  1.0000  -1.7955   0.0000   0.0000   0.0000   0.1595
  11.200   0.6891   0.12763   0.12442  -0.0223  0.0388  1.0000  -2.3652   0.0000   0.0000   0.0000   0.2753
  11.400   0.6901   0.13148   0.12826  -0.0242  0.0387  1.0000  -2.3089   0.0000   0.0000   0.0000   0.2779
  11.600   0.6919   0.13506   0.13182  -0.0261  0.0384  1.0000  -2.2566   0.0000   0.0000   0.0000   0.2805
  11.800   0.6963   0.13767   0.13443  -0.0296  0.0364  1.0000  -2.1869   0.0000   0.0000   0.0000   0.2851
  11.900   0.6967   0.13951   0.13625  -0.0311  0.0353  1.0000  -2.1449   0.0000   0.0000   0.0000   0.2872
  12.000   0.6971   0.14134   0.13808  -0.0322  0.0344  1.0000  -2.1141   0.0000   0.0000   0.0000   0.2886
  12.100   0.6976   0.14314   0.13987  -0.0331  0.0336  1.0000  -2.0894   0.0000   0.0000   0.0000   0.2899
  12.200   0.6983   0.14490   0.14163  -0.0339  0.0329  1.0000  -2.0686   0.0000   0.0000   0.0000   0.2909
  12.300   0.6991   0.14663   0.14336  -0.0347  0.0323  1.0000  -2.0508   0.0000   0.0000   0.0000   0.2919
  12.400   0.7001   0.14834   0.14506  -0.0355  0.0317  1.0000  -2.0354   0.0000   0.0000   0.0000   0.2928
  12.500   0.7011   0.15001   0.14673  -0.0362  0.0311  1.0000  -2.0220   0.0000   0.0000   0.0000   0.2937
  12.600   0.7022   0.15166   0.14838  -0.0368  0.0306  1.0000  -2.0106   0.0000   0.0000   0.0000   0.2945
  12.700   0.7035   0.15329   0.15001  -0.0375  0.0301  1.0000  -2.0010   0.0000   0.0000   0.0000   0.2952
  12.800   0.7048   0.15490   0.15161  -0.0381  0.0297  1.0000  -1.9960   0.0000   0.0000   0.0000   0.2959
  12.900   0.7062   0.15647   0.15318  -0.0387  0.0293  1.0000  -2.0007   0.0000   0.0000   0.0000   0.2965
  13.000   0.7076   0.15802   0.15473  -0.0393  0.0289  1.0000  -2.0070   0.0000   0.0000   0.0000   0.2972
  13.100   0.7091   0.15956   0.15626  -0.0398  0.0285  1.0000  -2.0150   0.0000   0.0000   0.0000   0.2977
  13.200   0.7108   0.16108   0.15778  -0.0403  0.0281  1.0000  -2.0246   0.0000   0.0000   0.0000   0.2982
  13.300   0.7125   0.16258   0.15928  -0.0408  0.0278  1.0000  -2.0360   0.0000   0.0000   0.0000   0.2987
  13.400   0.7144   0.16407   0.16082  -0.0413  0.0274  1.0000  -2.0462   0.0000   0.0000   0.0000   0.2992
  13.500   0.7163   0.16555   0.16230  -0.0418  0.0271  1.0000  -2.0598   0.0000   0.0000   0.0000   0.2996
  13.600   0.7184   0.16702   0.16376  -0.0422  0.0268  1.0000  -2.0765   0.0000   0.0000   0.0000   0.2999
  13.700   0.7206   0.16846   0.16521  -0.0426  0.0266  1.0000  -2.0960   0.0000   0.0000   0.0000   0.3002
  13.800   0.7230   0.16990   0.16665  -0.0430  0.0263  1.0000  -2.1180   0.0000   0.0000   0.0000   0.3004
  13.900   0.7255   0.17134   0.16808  -0.0433  0.0260  1.0000  -2.1429   0.0000   0.0000   0.0000   0.3006
  14.000   0.7281   0.17277   0.16952  -0.0436  0.0258  1.0000  -2.1710   0.0000   0.0000   0.0000   0.3006
  14.100   0.7310   0.17422   0.17097  -0.0438  0.0255  1.0000  -2.2026   0.0000   0.0000   0.0000   0.3006
  14.200   0.7341   0.17569   0.17244  -0.0440  0.0253  1.0000  -2.2385   0.0000   0.0000   0.0000   0.3004
  14.300   0.7371   0.17721   0.17396  -0.0441  0.0250  1.0000  -2.2731   0.0000   0.0000   0.0000   0.3002
  14.400   0.7398   0.17879   0.17554  -0.0443  0.0248  1.0000  -2.3035   0.0000   0.0000   0.0000   0.3002
  14.500   0.7422   0.18050   0.17726  -0.0445  0.0246  1.0000  -2.3310   0.0000   0.0000   0.0000   0.3001
  14.600   0.7432   0.18257   0.17932  -0.0449  0.0243  1.0000  -2.3319   0.0000   0.0000   0.0000   0.3005
  14.700   0.7424   0.18555   0.18229  -0.0455  0.0239  1.0000  -2.2984   0.0000   0.0000   0.0000   0.3013
  14.800   0.7372   0.19102   0.18771  -0.0466  0.0234  1.0000  -2.1489   0.0000   0.0000   0.0000   0.3033
  14.900   0.7393   0.19277   0.18947  -0.0473  0.0234  1.0000  -2.1442   0.0000   0.0000   0.0000   0.3040
  15.000   0.7415   0.19452   0.19121  -0.0481  0.0234  1.0000  -2.1396   0.0000   0.0000   0.0000   0.3047


