xflr5 v6.61

 Calculated polar for: NACA 0008

 1 1 Reynolds number fixed          Mach number fixed         

 xtrf =   1.000 (top)        1.000 (bottom)
 Mach =   0.000     Re =     0.050 e 6     Ncrit =   9.000

  alpha     CL        CD       CDp       Cm    Top Xtr Bot Xtr   Cpmin    Chinge    XCp    
 ------- -------- --------- --------- -------- ------- ------- -------- --------- ---------
 -13.000  -0.7038   0.17279   0.16558   0.0403  1.0000  0.1673  -1.7415   0.0000   0.0000   0.0000   0.2997
 -12.900  -0.7107   0.17321   0.16604   0.0388  1.0000  0.1684  -1.7799   0.0000   0.0000   0.0000   0.2971
 -12.800  -0.7179   0.17358   0.16644   0.0371  1.0000  0.1691  -1.8196   0.0000   0.0000   0.0000   0.2944
 -12.700  -0.7250   0.17381   0.16671   0.0355  1.0000  0.1695  -1.8587   0.0000   0.0000   0.0000   0.2919
 -12.600  -0.6913   0.16457   0.15738   0.0395  1.0000  0.1758  -1.7355   0.0000   0.0000   0.0000   0.2998
 -12.500  -0.6853   0.16264   0.15544   0.0398  1.0000  0.1794  -1.7180   0.0000   0.0000   0.0000   0.3008
 -12.400  -0.6830   0.16122   0.15402   0.0395  1.0000  0.1827  -1.7170   0.0000   0.0000   0.0000   0.3007
 -12.300  -0.6832   0.16014   0.15295   0.0390  1.0000  0.1860  -1.7264   0.0000   0.0000   0.0000   0.2999
 -12.200  -0.6873   0.15974   0.15257   0.0379  1.0000  0.1890  -1.7508   0.0000   0.0000   0.0000   0.2981
 -12.100  -0.6963   0.16024   0.15312   0.0363  1.0000  0.1909  -1.7932   0.0000   0.0000   0.0000   0.2952
 -12.000  -0.7069   0.16092   0.15385   0.0345  1.0000  0.1919  -1.8404   0.0000   0.0000   0.0000   0.2921
 -11.900  -0.7167   0.16136   0.15434   0.0327  1.0000  0.1924  -1.8858   0.0000   0.0000   0.0000   0.2891
 -11.800  -0.6965   0.15481   0.14775   0.0345  1.0000  0.1949  -1.8272   0.0000   0.0000   0.0000   0.2929
 -11.700  -0.6785   0.15090   0.14378   0.0362  1.0000  0.1989  -1.7658   0.0000   0.0000   0.0000   0.2967
 -11.600  -0.6728   0.14905   0.14192   0.0365  1.0000  0.2025  -1.7494   0.0000   0.0000   0.0000   0.2976
 -11.500  -0.6709   0.14767   0.14054   0.0363  1.0000  0.2062  -1.7483   0.0000   0.0000   0.0000   0.2975
 -11.400  -0.6731   0.14679   0.13968   0.0356  1.0000  0.2101  -1.7625   0.0000   0.0000   0.0000   0.2964
 -11.300  -0.6823   0.14694   0.13988   0.0341  1.0000  0.2132  -1.8018   0.0000   0.0000   0.0000   0.2938
 -11.200  -0.6955   0.14768   0.14067   0.0322  1.0000  0.2147  -1.8555   0.0000   0.0000   0.0000   0.2902
 -11.100  -0.7082   0.14823   0.14129   0.0303  1.0000  0.2153  -1.9076   0.0000   0.0000   0.0000   0.2869
 -11.000  -0.6793   0.14118   0.13416   0.0330  1.0000  0.2191  -1.8161   0.0000   0.0000   0.0000   0.2926
 -10.900  -0.6666   0.13852   0.13146   0.0341  1.0000  0.2233  -1.7731   0.0000   0.0000   0.0000   0.2952
 -10.800  -0.6626   0.13693   0.12986   0.0342  1.0000  0.2274  -1.7622   0.0000   0.0000   0.0000   0.2957
 -10.700  -0.6635   0.13582   0.12876   0.0338  1.0000  0.2318  -1.7694   0.0000   0.0000   0.0000   0.2950
 -10.600  -0.6730   0.13578   0.12877   0.0325  1.0000  0.2359  -1.8069   0.0000   0.0000   0.0000   0.2925
 -10.500  -0.6894   0.13664   0.12972   0.0304  1.0000  0.2377  -1.8684   0.0000   0.0000   0.0000   0.2886
 -10.400  -0.7049   0.13724   0.13039   0.0284  1.0000  0.2385  -1.9267   0.0000   0.0000   0.0000   0.2849
 -10.300  -0.6659   0.12977   0.12280   0.0321  1.0000  0.2437  -1.7990   0.0000   0.0000   0.0000   0.2926
 -10.200  -0.6557   0.12796   0.12095   0.0332  1.0000  0.2517  -1.7594   0.0000   0.0000   0.0000   0.2950
 -10.100  -0.6609   0.12733   0.12036   0.0325  1.0000  0.2571  -1.7787   0.0000   0.0000   0.0000   0.2937
 -10.000  -0.6728   0.12735   0.12043   0.0310  1.0000  0.2598  -1.8236   0.0000   0.0000   0.0000   0.2908
  -9.900  -0.6866   0.12751   0.12066   0.0293  1.0000  0.2609  -1.8750   0.0000   0.0000   0.0000   0.2875
  -9.800  -0.6502   0.12215   0.11518   0.0332  1.0000  0.2747  -1.7412   0.0000   0.0000   0.0000   0.2958
  -9.700  -0.6563   0.12161   0.11468   0.0326  1.0000  0.2805  -1.7622   0.0000   0.0000   0.0000   0.2945
  -9.600  -0.6702   0.12178   0.11492   0.0311  1.0000  0.2832  -1.8109   0.0000   0.0000   0.0000   0.2915
  -9.500  -0.6839   0.12180   0.11501   0.0296  1.0000  0.2842  -1.8599   0.0000   0.0000   0.0000   0.2884
  -9.400  -0.6459   0.11611   0.10919   0.0330  1.0000  0.2945  -1.7305   0.0000   0.0000   0.0000   0.2961
  -9.300  -0.6453   0.11488   0.10797   0.0330  1.0000  0.3001  -1.7281   0.0000   0.0000   0.0000   0.2962
  -9.200  -0.6656   0.11586   0.10904   0.0316  1.0000  0.3063  -1.7908   0.0000   0.0000   0.0000   0.2927
  -9.100  -0.6864   0.11662   0.10991   0.0298  1.0000  0.3077  -1.8583   0.0000   0.0000   0.0000   0.2888
  -9.000  -0.6506   0.11059   0.10376   0.0322  1.0000  0.3127  -1.7486   0.0000   0.0000   0.0000   0.2947
  -8.900  -0.6408   0.10855   0.10168   0.0327  1.0000  0.3173  -1.7166   0.0000   0.0000   0.0000   0.2964
  -8.800  -0.6397   0.10727   0.10041   0.0327  1.0000  0.3230  -1.7120   0.0000   0.0000   0.0000   0.2966
  -8.700  -0.6747   0.10965   0.10296   0.0308  1.0000  0.3306  -1.8153   0.0000   0.0000   0.0000   0.2913
  -8.600  -0.6585   0.10567   0.09893   0.0315  1.0000  0.3333  -1.7695   0.0000   0.0000   0.0000   0.2935
  -8.500  -0.6427   0.10281   0.09602   0.0323  1.0000  0.3367  -1.7208   0.0000   0.0000   0.0000   0.2958
  -8.400  -0.6354   0.10096   0.09415   0.0326  1.0000  0.3407  -1.6974   0.0000   0.0000   0.0000   0.2969
  -8.300  -0.6346   0.09963   0.09274   0.0326  1.0000  0.3458  -1.6955   0.0000   0.0000   0.0000   0.2970
  -8.200  -0.6647   0.10074   0.09410   0.0314  1.0000  0.3552  -1.7788   0.0000   0.0000   0.0000   0.2932
  -8.100  -0.6477   0.09743   0.09073   0.0320  1.0000  0.3574  -1.7300   0.0000   0.0000   0.0000   0.2953
  -8.000  -0.6386   0.09520   0.08838   0.0322  1.0000  0.3597  -1.7040   0.0000   0.0000   0.0000   0.2963
  -7.900  -0.7475   0.07269   0.06562  -0.0105  1.0000  0.1478  -2.8591   0.0000   0.0000   0.0000   0.2318
  -7.800  -0.7416   0.07053   0.06339  -0.0105  1.0000  0.1463  -2.8523   0.0000   0.0000   0.0000   0.2316
  -7.700  -0.7382   0.06817   0.06100  -0.0107  1.0000  0.1458  -2.8529   0.0000   0.0000   0.0000   0.2313
  -7.600  -0.7352   0.06588   0.05865  -0.0109  1.0000  0.1454  -2.8561   0.0000   0.0000   0.0000   0.2310
  -7.500  -0.7322   0.06361   0.05633  -0.0111  1.0000  0.1447  -2.8594   0.0000   0.0000   0.0000   0.2307
  -7.400  -0.7289   0.06136   0.05401  -0.0113  1.0000  0.1438  -2.8624   0.0000   0.0000   0.0000   0.2305
  -7.300  -0.7255   0.05912   0.05169  -0.0114  1.0000  0.1426  -2.8666   0.0000   0.0000   0.0000   0.2302
  -7.200  -0.7221   0.05685   0.04932  -0.0116  1.0000  0.1409  -2.8749   0.0000   0.0000   0.0000   0.2300
  -7.100  -0.7189   0.05454   0.04687  -0.0117  1.0000  0.1388  -2.8899   0.0000   0.0000   0.0000   0.2297
  -7.000  -0.7156   0.05224   0.04439  -0.0119  1.0000  0.1368  -2.9085   0.0000   0.0000   0.0000   0.2294
  -6.900  -0.7118   0.04998   0.04193  -0.0119  1.0000  0.1350  -2.9273   0.0000   0.0000   0.0000   0.2292
  -6.800  -0.7075   0.04781   0.03951  -0.0119  1.0000  0.1335  -2.9444   0.0000   0.0000   0.0000   0.2292
  -6.700  -0.7025   0.04578   0.03723  -0.0118  1.0000  0.1326  -2.9546   0.0000   0.0000   0.0000   0.2293
  -6.600  -0.6966   0.04394   0.03513  -0.0115  1.0000  0.1322  -2.9542   0.0000   0.0000   0.0000   0.2295
  -6.500  -0.6900   0.04226   0.03323  -0.0112  1.0000  0.1324  -2.9427   0.0000   0.0000   0.0000   0.2298
  -6.400  -0.6828   0.04071   0.03148  -0.0109  1.0000  0.1330  -2.9222   0.0000   0.0000   0.0000   0.2301
  -6.300  -0.6751   0.03953   0.03016  -0.0105  1.0000  0.1357  -2.8805   0.0000   0.0000   0.0000   0.2305
  -6.200  -0.6674   0.03860   0.02904  -0.0101  1.0000  0.1406  -2.8343   0.0000   0.0000   0.0000   0.2310
  -6.100  -0.6596   0.03769   0.02781  -0.0097  1.0000  0.1448  -2.8003   0.0000   0.0000   0.0000   0.2315
  -6.000  -0.6512   0.03688   0.02664  -0.0092  1.0000  0.1472  -2.7693   0.0000   0.0000   0.0000   0.2321
  -5.900  -0.6430   0.03502   0.02472  -0.0090  1.0000  0.1489  -2.7422   0.0000   0.0000   0.0000   0.2323
  -5.800  -0.6337   0.03363   0.02322  -0.0087  1.0000  0.1503  -2.7088   0.0000   0.0000   0.0000   0.2326
  -5.700  -0.6240   0.03243   0.02193  -0.0084  1.0000  0.1520  -2.6695   0.0000   0.0000   0.0000   0.2329
  -5.600  -0.6141   0.03137   0.02077  -0.0080  1.0000  0.1543  -2.6266   0.0000   0.0000   0.0000   0.2332
  -5.500  -0.6040   0.03040   0.01968  -0.0077  1.0000  0.1570  -2.5822   0.0000   0.0000   0.0000   0.2336
  -5.400  -0.5936   0.02948   0.01864  -0.0074  1.0000  0.1603  -2.5368   0.0000   0.0000   0.0000   0.2340
  -5.300  -0.5830   0.02860   0.01750  -0.0070  1.0000  0.1642  -2.4915   0.0000   0.0000   0.0000   0.2345
  -5.200  -0.5722   0.02781   0.01648  -0.0066  1.0000  0.1685  -2.4483   0.0000   0.0000   0.0000   0.2349
  -5.100  -0.5616   0.02672   0.01543  -0.0063  1.0000  0.1737  -2.3952   0.0000   0.0000   0.0000   0.2352
  -5.000  -0.5513   0.02594   0.01471  -0.0060  1.0000  0.1806  -2.3359   0.0000   0.0000   0.0000   0.2357
  -4.900  -0.5405   0.02524   0.01390  -0.0056  1.0000  0.1890  -2.2835   0.0000   0.0000   0.0000   0.2362
  -4.800  -0.5304   0.02443   0.01318  -0.0053  1.0000  0.1997  -2.2243   0.0000   0.0000   0.0000   0.2367
  -4.700  -0.5209   0.02391   0.01262  -0.0049  1.0000  0.2163  -2.1663   0.0000   0.0000   0.0000   0.2374
  -4.600  -0.5118   0.02321   0.01209  -0.0044  1.0000  0.2357  -2.1060   0.0000   0.0000   0.0000   0.2381
  -4.500  -0.5022   0.02240   0.01141  -0.0039  1.0000  0.2605  -2.0546   0.0000   0.0000   0.0000   0.2390
  -4.400  -0.4930   0.02136   0.01073  -0.0033  1.0000  0.2963  -2.0086   0.0000   0.0000   0.0000   0.2401
  -4.300  -0.4858   0.02017   0.01006  -0.0024  1.0000  0.3612  -1.9726   0.0000   0.0000   0.0000   0.2420
  -4.200  -0.4822   0.01917   0.00967  -0.0006  1.0000  0.4452  -1.9466   0.0000   0.0000   0.0000   0.2458
  -4.100  -0.4787   0.01854   0.00954   0.0016  1.0000  0.5214  -1.9096   0.0000   0.0000   0.0000   0.2505
  -4.000  -0.4747   0.01819   0.00951   0.0039  1.0000  0.5873  -1.8649   0.0000   0.0000   0.0000   0.2555
  -3.900  -0.4703   0.01801   0.00961   0.0066  1.0000  0.6427  -1.8149   0.0000   0.0000   0.0000   0.2611
  -3.800  -0.4657   0.01797   0.00977   0.0093  1.0000  0.6937  -1.7626   0.0000   0.0000   0.0000   0.2673
  -3.700  -0.4601   0.01805   0.00997   0.0122  1.0000  0.7389  -1.7062   0.0000   0.0000   0.0000   0.2738
  -3.600  -0.4526   0.01821   0.01019   0.0148  1.0000  0.7793  -1.6441   0.0000   0.0000   0.0000   0.2801
  -3.500  -0.4426   0.01844   0.01039   0.0170  1.0000  0.8167  -1.5745   0.0000   0.0000   0.0000   0.2859
  -3.400  -0.4237   0.01883   0.01060   0.0179  1.0000  0.8510  -1.4764   0.0000   0.0000   0.0000   0.2896
  -3.300  -0.3998   0.01925   0.01082   0.0176  1.0000  0.8863  -1.3866   0.0000   0.0000   0.0000   0.2913
  -3.200  -0.3426   0.01986   0.01101   0.0113  1.0000  0.9222  -1.2454   0.0000   0.0000   0.0000   0.2801
  -3.100  -0.2910   0.01993   0.01072   0.0043  1.0000  0.9536  -1.1222   0.0000   0.0000   0.0000   0.2616
  -3.000  -0.2358   0.01963   0.01009  -0.0042  1.0000  0.9794  -0.9964   0.0000   0.0000   0.0000   0.2285
  -2.900  -0.1882   0.01911   0.00925  -0.0121  1.0000  1.0000  -0.8896   0.0000   0.0000   0.0000   0.1820
  -2.800  -0.1825   0.01875   0.00883  -0.0122  1.0000  1.0000  -0.8645   0.0000   0.0000   0.0000   0.1793
  -2.700  -0.1767   0.01841   0.00845  -0.0123  1.0000  1.0000  -0.8388   0.0000   0.0000   0.0000   0.1768
  -2.600  -0.1707   0.01811   0.00809  -0.0123  1.0000  1.0000  -0.8126   0.0000   0.0000   0.0000   0.1744
  -2.500  -0.1646   0.01784   0.00776  -0.0122  1.0000  1.0000  -0.7858   0.0000   0.0000   0.0000   0.1721
  -2.400  -0.1584   0.01758   0.00746  -0.0121  1.0000  1.0000  -0.7587   0.0000   0.0000   0.0000   0.1699
  -2.300  -0.1520   0.01735   0.00719  -0.0120  1.0000  1.0000  -0.7312   0.0000   0.0000   0.0000   0.1678
  -2.200  -0.1456   0.01715   0.00693  -0.0117  1.0000  1.0000  -0.7035   0.0000   0.0000   0.0000   0.1658
  -2.100  -0.1390   0.01696   0.00670  -0.0115  1.0000  1.0000  -0.6756   0.0000   0.0000   0.0000   0.1638
  -2.000  -0.1324   0.01678   0.00648  -0.0112  1.0000  1.0000  -0.6475   0.0000   0.0000   0.0000   0.1619
  -1.900  -0.1257   0.01662   0.00628  -0.0109  1.0000  1.0000  -0.6260   0.0000   0.0000   0.0000   0.1600
  -1.800  -0.1190   0.01648   0.00610  -0.0105  1.0000  1.0000  -0.6046   0.0000   0.0000   0.0000   0.1581
  -1.700  -0.1123   0.01635   0.00594  -0.0101  1.0000  1.0000  -0.5832   0.0000   0.0000   0.0000   0.1562
  -1.600  -0.1055   0.01623   0.00578  -0.0097  1.0000  1.0000  -0.5618   0.0000   0.0000   0.0000   0.1544
  -1.500  -0.0987   0.01612   0.00561  -0.0093  1.0000  1.0000  -0.5406   0.0000   0.0000   0.0000   0.1526
  -1.400  -0.0919   0.01602   0.00548  -0.0088  1.0000  1.0000  -0.5193   0.0000   0.0000   0.0000   0.1508
  -1.300  -0.0851   0.01593   0.00537  -0.0083  1.0000  1.0000  -0.4981   0.0000   0.0000   0.0000   0.1490
  -1.200  -0.0783   0.01585   0.00526  -0.0078  1.0000  1.0000  -0.4770   0.0000   0.0000   0.0000   0.1472
  -1.100  -0.0716   0.01577   0.00516  -0.0073  1.0000  1.0000  -0.4560   0.0000   0.0000   0.0000   0.1454
  -1.000  -0.0648   0.01571   0.00508  -0.0067  1.0000  1.0000  -0.4352   0.0000   0.0000   0.0000   0.1437
  -0.900  -0.0582   0.01565   0.00500  -0.0061  1.0000  1.0000  -0.4145   0.0000   0.0000   0.0000   0.1420
  -0.800  -0.0515   0.01560   0.00493  -0.0055  1.0000  1.0000  -0.3939   0.0000   0.0000   0.0000   0.1404
  -0.700  -0.0449   0.01556   0.00488  -0.0048  1.0000  1.0000  -0.3736   0.0000   0.0000   0.0000   0.1389
  -0.600  -0.0384   0.01552   0.00483  -0.0042  1.0000  1.0000  -0.3534   0.0000   0.0000   0.0000   0.1374
  -0.500  -0.0319   0.01549   0.00478  -0.0035  1.0000  1.0000  -0.3383   0.0000   0.0000   0.0000   0.1360
  -0.400  -0.0254   0.01546   0.00475  -0.0028  1.0000  1.0000  -0.3258   0.0000   0.0000   0.0000   0.1347
  -0.300  -0.0190   0.01544   0.00473  -0.0022  1.0000  1.0000  -0.3134   0.0000   0.0000   0.0000   0.1335
  -0.200  -0.0126   0.01543   0.00471  -0.0014  1.0000  1.0000  -0.3029   0.0000   0.0000   0.0000   0.1321
  -0.100  -0.0063   0.01542   0.00470  -0.0007  1.0000  1.0000  -0.2926   0.0000   0.0000   0.0000   0.1311
   0.000   0.0000   0.01542   0.00452  -0.0000  1.0000  1.0000  -0.2823   0.0000   0.0000   0.0000   0.3743
   0.100   0.0063   0.01542   0.00470   0.0007  1.0000  1.0000  -0.2926   0.0000   0.0000   0.0000   0.1311
   0.200   0.0126   0.01543   0.00471   0.0014  1.0000  1.0000  -0.3029   0.0000   0.0000   0.0000   0.1321
   0.300   0.0190   0.01544   0.00473   0.0022  1.0000  1.0000  -0.3134   0.0000   0.0000   0.0000   0.1335
   0.400   0.0254   0.01546   0.00475   0.0028  1.0000  1.0000  -0.3258   0.0000   0.0000   0.0000   0.1348
   0.500   0.0319   0.01549   0.00478   0.0035  1.0000  1.0000  -0.3383   0.0000   0.0000   0.0000   0.1361
   0.600   0.0384   0.01552   0.00483   0.0042  1.0000  1.0000  -0.3534   0.0000   0.0000   0.0000   0.1374
   0.700   0.0449   0.01556   0.00487   0.0048  1.0000  1.0000  -0.3736   0.0000   0.0000   0.0000   0.1389
   0.800   0.0515   0.01560   0.00493   0.0055  1.0000  1.0000  -0.3940   0.0000   0.0000   0.0000   0.1405
   0.900   0.0582   0.01565   0.00500   0.0061  1.0000  1.0000  -0.4145   0.0000   0.0000   0.0000   0.1421
   1.000   0.0649   0.01571   0.00508   0.0067  1.0000  1.0000  -0.4352   0.0000   0.0000   0.0000   0.1438
   1.100   0.0716   0.01577   0.00516   0.0072  1.0000  1.0000  -0.4560   0.0000   0.0000   0.0000   0.1455
   1.200   0.0783   0.01585   0.00526   0.0078  1.0000  1.0000  -0.4770   0.0000   0.0000   0.0000   0.1473
   1.300   0.0851   0.01593   0.00536   0.0083  1.0000  1.0000  -0.4981   0.0000   0.0000   0.0000   0.1491
   1.400   0.0919   0.01602   0.00548   0.0088  1.0000  1.0000  -0.5193   0.0000   0.0000   0.0000   0.1509
   1.500   0.0987   0.01612   0.00561   0.0093  1.0000  1.0000  -0.5406   0.0000   0.0000   0.0000   0.1527
   1.600   0.1055   0.01622   0.00578   0.0097  1.0000  1.0000  -0.5619   0.0000   0.0000   0.0000   0.1545
   1.700   0.1123   0.01634   0.00593   0.0101  1.0000  1.0000  -0.5833   0.0000   0.0000   0.0000   0.1564
   1.800   0.1191   0.01648   0.00610   0.0105  1.0000  1.0000  -0.6047   0.0000   0.0000   0.0000   0.1582
   1.900   0.1258   0.01662   0.00628   0.0109  1.0000  1.0000  -0.6261   0.0000   0.0000   0.0000   0.1601
   2.000   0.1325   0.01678   0.00648   0.0112  1.0000  1.0000  -0.6477   0.0000   0.0000   0.0000   0.1620
   2.100   0.1391   0.01695   0.00669   0.0115  1.0000  1.0000  -0.6757   0.0000   0.0000   0.0000   0.1640
   2.200   0.1457   0.01714   0.00693   0.0117  1.0000  1.0000  -0.7037   0.0000   0.0000   0.0000   0.1660
   2.300   0.1522   0.01735   0.00718   0.0119  1.0000  1.0000  -0.7315   0.0000   0.0000   0.0000   0.1680
   2.400   0.1585   0.01758   0.00746   0.0121  1.0000  1.0000  -0.7590   0.0000   0.0000   0.0000   0.1701
   2.500   0.1648   0.01783   0.00776   0.0122  1.0000  1.0000  -0.7861   0.0000   0.0000   0.0000   0.1723
   2.600   0.1709   0.01810   0.00808   0.0123  1.0000  1.0000  -0.8129   0.0000   0.0000   0.0000   0.1746
   2.700   0.1769   0.01841   0.00844   0.0122  1.0000  1.0000  -0.8392   0.0000   0.0000   0.0000   0.1770
   2.800   0.1827   0.01874   0.00882   0.0122  1.0000  1.0000  -0.8650   0.0000   0.0000   0.0000   0.1795
   2.900   0.1884   0.01910   0.00924   0.0120  1.0000  1.0000  -0.8900   0.0000   0.0000   0.0000   0.1822
   3.000   0.2358   0.01962   0.01008   0.0043  0.9795  1.0000  -0.9964   0.0000   0.0000   0.0000   0.2285
   3.100   0.2911   0.01993   0.01071  -0.0043  0.9537  1.0000  -1.1225   0.0000   0.0000   0.0000   0.2617
   3.200   0.3427   0.01985   0.01100  -0.0113  0.9223  1.0000  -1.2456   0.0000   0.0000   0.0000   0.2802
   3.300   0.3998   0.01924   0.01081  -0.0176  0.8863  1.0000  -1.3867   0.0000   0.0000   0.0000   0.2913
   3.400   0.4237   0.01883   0.01060  -0.0179  0.8510  1.0000  -1.4764   0.0000   0.0000   0.0000   0.2896
   3.500   0.4426   0.01844   0.01039  -0.0170  0.8167  1.0000  -1.5745   0.0000   0.0000   0.0000   0.2859
   3.600   0.4526   0.01821   0.01019  -0.0148  0.7793  1.0000  -1.6441   0.0000   0.0000   0.0000   0.2801
   3.700   0.4601   0.01804   0.00997  -0.0122  0.7390  1.0000  -1.7061   0.0000   0.0000   0.0000   0.2738
   3.800   0.4657   0.01797   0.00977  -0.0093  0.6938  1.0000  -1.7625   0.0000   0.0000   0.0000   0.2673
   3.900   0.4703   0.01800   0.00961  -0.0066  0.6427  1.0000  -1.8148   0.0000   0.0000   0.0000   0.2611
   4.000   0.4747   0.01819   0.00951  -0.0039  0.5873  1.0000  -1.8649   0.0000   0.0000   0.0000   0.2554
   4.100   0.4787   0.01854   0.00954  -0.0016  0.5215  1.0000  -1.9095   0.0000   0.0000   0.0000   0.2505
   4.200   0.4821   0.01917   0.00967   0.0006  0.4453  1.0000  -1.9466   0.0000   0.0000   0.0000   0.2458
   4.300   0.4858   0.02016   0.01006   0.0024  0.3612  1.0000  -1.9726   0.0000   0.0000   0.0000   0.2420
   4.400   0.4930   0.02136   0.01073   0.0033  0.2963  1.0000  -2.0085   0.0000   0.0000   0.0000   0.2401
   4.500   0.5022   0.02240   0.01141   0.0039  0.2605  1.0000  -2.0546   0.0000   0.0000   0.0000   0.2390
   4.600   0.5118   0.02321   0.01209   0.0044  0.2357  1.0000  -2.1059   0.0000   0.0000   0.0000   0.2381
   4.700   0.5209   0.02391   0.01262   0.0049  0.2163  1.0000  -2.1663   0.0000   0.0000   0.0000   0.2374
   4.800   0.5303   0.02443   0.01318   0.0053  0.1997  1.0000  -2.2242   0.0000   0.0000   0.0000   0.2367
   4.900   0.5404   0.02524   0.01390   0.0056  0.1890  1.0000  -2.2834   0.0000   0.0000   0.0000   0.2362
   5.000   0.5513   0.02594   0.01471   0.0060  0.1806  1.0000  -2.3358   0.0000   0.0000   0.0000   0.2357
   5.100   0.5616   0.02672   0.01543   0.0063  0.1737  1.0000  -2.3952   0.0000   0.0000   0.0000   0.2352
   5.200   0.5722   0.02781   0.01648   0.0066  0.1685  1.0000  -2.4483   0.0000   0.0000   0.0000   0.2349
   5.300   0.5830   0.02860   0.01750   0.0070  0.1642  1.0000  -2.4915   0.0000   0.0000   0.0000   0.2344
   5.400   0.5936   0.02948   0.01864   0.0074  0.1603  1.0000  -2.5368   0.0000   0.0000   0.0000   0.2340
   5.500   0.6040   0.03040   0.01968   0.0077  0.1570  1.0000  -2.5822   0.0000   0.0000   0.0000   0.2336
   5.600   0.6141   0.03137   0.02077   0.0080  0.1543  1.0000  -2.6266   0.0000   0.0000   0.0000   0.2332
   5.700   0.6240   0.03243   0.02193   0.0084  0.1520  1.0000  -2.6695   0.0000   0.0000   0.0000   0.2329
   5.800   0.6337   0.03363   0.02322   0.0087  0.1503  1.0000  -2.7088   0.0000   0.0000   0.0000   0.2326
   5.900   0.6430   0.03502   0.02472   0.0090  0.1489  1.0000  -2.7423   0.0000   0.0000   0.0000   0.2323
   6.000   0.6512   0.03688   0.02664   0.0092  0.1472  1.0000  -2.7693   0.0000   0.0000   0.0000   0.2321
   6.100   0.6596   0.03769   0.02781   0.0097  0.1448  1.0000  -2.8003   0.0000   0.0000   0.0000   0.2315
   6.200   0.6674   0.03860   0.02904   0.0101  0.1406  1.0000  -2.8344   0.0000   0.0000   0.0000   0.2310
   6.300   0.6751   0.03953   0.03016   0.0105  0.1357  1.0000  -2.8805   0.0000   0.0000   0.0000   0.2305
   6.400   0.6828   0.04071   0.03148   0.0109  0.1330  1.0000  -2.9223   0.0000   0.0000   0.0000   0.2301
   6.500   0.6900   0.04226   0.03323   0.0112  0.1324  1.0000  -2.9428   0.0000   0.0000   0.0000   0.2298
   6.600   0.6967   0.04394   0.03514   0.0115  0.1322  1.0000  -2.9543   0.0000   0.0000   0.0000   0.2295
   6.700   0.7025   0.04578   0.03723   0.0117  0.1326  1.0000  -2.9547   0.0000   0.0000   0.0000   0.2293
   6.800   0.7075   0.04781   0.03951   0.0119  0.1335  1.0000  -2.9444   0.0000   0.0000   0.0000   0.2292
   6.900   0.7118   0.04999   0.04193   0.0119  0.1350  1.0000  -2.9273   0.0000   0.0000   0.0000   0.2293
   7.000   0.7157   0.05225   0.04440   0.0119  0.1368  1.0000  -2.9085   0.0000   0.0000   0.0000   0.2294
   7.100   0.7190   0.05455   0.04688   0.0117  0.1388  1.0000  -2.8899   0.0000   0.0000   0.0000   0.2297
   7.200   0.7222   0.05686   0.04933   0.0115  0.1409  1.0000  -2.8749   0.0000   0.0000   0.0000   0.2300
   7.300   0.7256   0.05913   0.05170   0.0114  0.1426  1.0000  -2.8667   0.0000   0.0000   0.0000   0.2303
   7.400   0.7290   0.06137   0.05402   0.0113  0.1438  1.0000  -2.8625   0.0000   0.0000   0.0000   0.2305
   7.500   0.7323   0.06362   0.05634   0.0111  0.1447  1.0000  -2.8595   0.0000   0.0000   0.0000   0.2308
   7.600   0.7354   0.06589   0.05866   0.0109  0.1454  1.0000  -2.8562   0.0000   0.0000   0.0000   0.2311
   7.700   0.7384   0.06818   0.06101   0.0107  0.1458  1.0000  -2.8530   0.0000   0.0000   0.0000   0.2314
   7.800   0.7418   0.07055   0.06341   0.0105  0.1463  1.0000  -2.8524   0.0000   0.0000   0.0000   0.2317
   7.900   0.7477   0.07271   0.06564   0.0104  0.1478  1.0000  -2.8595   0.0000   0.0000   0.0000   0.2318
   8.000   0.6396   0.09525   0.08843  -0.0323  0.3596  1.0000  -1.7058   0.0000   0.0000   0.0000   0.2965
   8.200   0.6663   0.10086   0.09423  -0.0315  0.3552  1.0000  -1.7821   0.0000   0.0000   0.0000   0.2933
   8.300   0.6355   0.09966   0.09277  -0.0328  0.3456  1.0000  -1.6968   0.0000   0.0000   0.0000   0.2972
   8.400   0.6366   0.10101   0.09420  -0.0328  0.3405  1.0000  -1.6995   0.0000   0.0000   0.0000   0.2971
   8.500   0.6441   0.10289   0.09610  -0.0325  0.3365  1.0000  -1.7236   0.0000   0.0000   0.0000   0.2960
   8.600   0.6604   0.10581   0.09908  -0.0317  0.3332  1.0000  -1.7736   0.0000   0.0000   0.0000   0.2936
   8.700   0.6743   0.10955   0.10285  -0.0311  0.3305  1.0000  -1.8125   0.0000   0.0000   0.0000   0.2917
   8.800   0.6406   0.10729   0.10043  -0.0329  0.3227  1.0000  -1.7132   0.0000   0.0000   0.0000   0.2968
   8.900   0.6422   0.10861   0.10174  -0.0329  0.3170  1.0000  -1.7192   0.0000   0.0000   0.0000   0.2966
   9.000   0.6524   0.11070   0.10387  -0.0323  0.3125  1.0000  -1.7527   0.0000   0.0000   0.0000   0.2948
   9.100   0.6865   0.11657   0.10986  -0.0300  0.3076  1.0000  -1.8568   0.0000   0.0000   0.0000   0.2892
   9.200   0.6652   0.11575   0.10893  -0.0319  0.3062  1.0000  -1.7880   0.0000   0.0000   0.0000   0.2931
   9.300   0.6462   0.11490   0.10799  -0.0332  0.2998  1.0000  -1.7293   0.0000   0.0000   0.0000   0.2965
   9.400   0.6475   0.11618   0.10926  -0.0332  0.2942  1.0000  -1.7335   0.0000   0.0000   0.0000   0.2963
   9.500   0.6841   0.12176   0.11496  -0.0299  0.2841  1.0000  -1.8584   0.0000   0.0000   0.0000   0.2889
   9.600   0.6704   0.12172   0.11485  -0.0315  0.2830  1.0000  -1.8091   0.0000   0.0000   0.0000   0.2919
   9.700   0.6567   0.12156   0.11463  -0.0329  0.2801  1.0000  -1.7612   0.0000   0.0000   0.0000   0.2949
   9.800   0.6515   0.12218   0.11522  -0.0335  0.2741  1.0000  -1.7437   0.0000   0.0000   0.0000   0.2961
   9.900   0.6868   0.12745   0.12060  -0.0296  0.2609  1.0000  -1.8732   0.0000   0.0000   0.0000   0.2880
  10.000   0.6730   0.12728   0.12036  -0.0313  0.2596  1.0000  -1.8217   0.0000   0.0000   0.0000   0.2912
  10.100   0.6614   0.12729   0.12031  -0.0328  0.2567  1.0000  -1.7779   0.0000   0.0000   0.0000   0.2941
  10.200   0.6571   0.12799   0.12098  -0.0334  0.2511  1.0000  -1.7619   0.0000   0.0000   0.0000   0.2952
  10.300   0.6693   0.13002   0.12305  -0.0321  0.2431  1.0000  -1.8087   0.0000   0.0000   0.0000   0.2924
  10.400   0.7051   0.13719   0.13033  -0.0288  0.2384  1.0000  -1.9249   0.0000   0.0000   0.0000   0.2854
  10.500   0.6896   0.13656   0.12963  -0.0308  0.2377  1.0000  -1.8661   0.0000   0.0000   0.0000   0.2891
  10.600   0.6732   0.13570   0.12869  -0.0329  0.2356  1.0000  -1.8048   0.0000   0.0000   0.0000   0.2930
  10.700   0.6646   0.13585   0.12879  -0.0341  0.2314  1.0000  -1.7703   0.0000   0.0000   0.0000   0.2954
  10.800   0.6642   0.13701   0.12994  -0.0345  0.2271  1.0000  -1.7647   0.0000   0.0000   0.0000   0.2959
  10.900   0.6686   0.13864   0.13159  -0.0344  0.2230  1.0000  -1.7772   0.0000   0.0000   0.0000   0.2953
  11.000   0.6829   0.14154   0.13453  -0.0331  0.2187  1.0000  -1.8259   0.0000   0.0000   0.0000   0.2924
  11.100   0.7086   0.14818   0.14124  -0.0307  0.2153  1.0000  -1.9057   0.0000   0.0000   0.0000   0.2874
  11.200   0.6958   0.14760   0.14059  -0.0326  0.2146  1.0000  -1.8533   0.0000   0.0000   0.0000   0.2907
  11.300   0.6827   0.14686   0.13979  -0.0345  0.2130  1.0000  -1.7997   0.0000   0.0000   0.0000   0.2943
  11.400   0.6742   0.14681   0.13970  -0.0359  0.2098  1.0000  -1.7627   0.0000   0.0000   0.0000   0.2969
  11.500   0.6725   0.14775   0.14063  -0.0366  0.2059  1.0000  -1.7502   0.0000   0.0000   0.0000   0.2979
  11.600   0.6746   0.14917   0.14204  -0.0367  0.2022  1.0000  -1.7524   0.0000   0.0000   0.0000   0.2979
  11.700   0.6809   0.15109   0.14398  -0.0364  0.1986  1.0000  -1.7707   0.0000   0.0000   0.0000   0.2968
  11.800   0.7038   0.15600   0.14897  -0.0341  0.1943  1.0000  -1.8500   0.0000   0.0000   0.0000   0.2919
  11.900   0.7173   0.16132   0.15429  -0.0331  0.1923  1.0000  -1.8841   0.0000   0.0000   0.0000   0.2896
  12.000   0.7074   0.16085   0.15378  -0.0349  0.1918  1.0000  -1.8385   0.0000   0.0000   0.0000   0.2926
  12.100   0.6969   0.16016   0.15304  -0.0367  0.1908  1.0000  -1.7911   0.0000   0.0000   0.0000   0.2958
  12.200   0.6882   0.15972   0.15256  -0.0383  0.1887  1.0000  -1.7499   0.0000   0.0000   0.0000   0.2986
  12.300   0.6845   0.16022   0.15303  -0.0393  0.1856  1.0000  -1.7273   0.0000   0.0000   0.0000   0.3003
  12.400   0.6847   0.16135   0.15415  -0.0399  0.1824  1.0000  -1.7189   0.0000   0.0000   0.0000   0.3010
  12.500   0.6872   0.16280   0.15560  -0.0401  0.1791  1.0000  -1.7211   0.0000   0.0000   0.0000   0.3010
  12.600   0.6940   0.16484   0.15767  -0.0397  0.1753  1.0000  -1.7420   0.0000   0.0000   0.0000   0.2998
  12.700   0.7257   0.17377   0.16668  -0.0360  0.1694  1.0000  -1.8570   0.0000   0.0000   0.0000   0.2924
  12.800   0.7186   0.17354   0.16640  -0.0376  0.1690  1.0000  -1.8176   0.0000   0.0000   0.0000   0.2950
  12.900   0.7114   0.17316   0.16598  -0.0392  0.1683  1.0000  -1.7779   0.0000   0.0000   0.0000   0.2976
  13.000   0.7045   0.17275   0.16554  -0.0408  0.1672  1.0000  -1.7398   0.0000   0.0000   0.0000   0.3002
  13.100   0.6996   0.17270   0.16545  -0.0421  0.1650  1.0000  -1.7091   0.0000   0.0000   0.0000   0.3024
  13.200   0.6980   0.17334   0.16609  -0.0429  0.1619  1.0000  -1.6921   0.0000   0.0000   0.0000   0.3036
  13.300   0.6993   0.17450   0.16724  -0.0434  0.1584  1.0000  -1.6878   0.0000   0.0000   0.0000   0.3041
  13.400   0.7033   0.17609   0.16884  -0.0434  0.1546  1.0000  -1.6975   0.0000   0.0000   0.0000   0.3037
  13.500   0.7166   0.17960   0.17239  -0.0421  0.1502  1.0000  -1.7498   0.0000   0.0000   0.0000   0.3006
  13.600   0.7467   0.19034   0.18332  -0.0386  0.1470  1.0000  -1.8539   0.0000   0.0000   0.0000   0.2938
  13.700   0.7413   0.19012   0.18295  -0.0402  0.1467  1.0000  -1.8174   0.0000   0.0000   0.0000   0.2962
  13.800   0.7355   0.18969   0.18248  -0.0418  0.1464  1.0000  -1.7795   0.0000   0.0000   0.0000   0.2987
  13.900   0.7293   0.18905   0.18181  -0.0434  0.1458  1.0000  -1.7411   0.0000   0.0000   0.0000   0.3012
  14.000   0.7234   0.18833   0.18106  -0.0450  0.1450  1.0000  -1.7038   0.0000   0.0000   0.0000   0.3037
  14.100   0.7193   0.18797   0.18067  -0.0464  0.1434  1.0000  -1.6720   0.0000   0.0000   0.0000   0.3059
  14.200   0.7179   0.18841   0.18109  -0.0475  0.1413  1.0000  -1.6508   0.0000   0.0000   0.0000   0.3074
  14.300   0.7186   0.18939   0.18206  -0.0483  0.1390  1.0000  -1.6386   0.0000   0.0000   0.0000   0.3084
  14.400   0.7203   0.19063   0.18330  -0.0489  0.1367  1.0000  -1.6320   0.0000   0.0000   0.0000   0.3090
  14.500   0.7229   0.19205   0.18471  -0.0494  0.1345  1.0000  -1.6299   0.0000   0.0000   0.0000   0.3092
  14.600   0.7262   0.19364   0.18643  -0.0497  0.1324  1.0000  -1.6324   0.0000   0.0000   0.0000   0.3092
  14.700   0.7308   0.19553   0.18832  -0.0497  0.1303  1.0000  -1.6419   0.0000   0.0000   0.0000   0.3088
  14.800   0.7379   0.19824   0.19105  -0.0493  0.1281  1.0000  -1.6647   0.0000   0.0000   0.0000   0.3075
  14.900   0.7735   0.21352   0.20643  -0.0447  0.1245  1.0000  -1.8525   0.0000   0.0000   0.0000   0.2988
  15.000   0.7703   0.21338   0.20627  -0.0461  0.1243  1.0000  -1.8231   0.0000   0.0000   0.0000   0.3008


