xflr5 v6.61

 Calculated polar for: NACA 0008

 1 1 Reynolds number fixed          Mach number fixed         

 xtrf =   1.000 (top)        1.000 (bottom)
 Mach =   0.000     Re =     0.400 e 6     Ncrit =   9.000

  alpha     CL        CD       CDp       Cm    Top Xtr Bot Xtr   Cpmin    Chinge    XCp    
 ------- -------- --------- --------- -------- ------- ------- -------- --------- ---------
 -13.000  -0.7018   0.15856   0.15594   0.0369  1.0000  0.0231  -2.1171   0.0000   0.0000   0.0000   0.2941
 -12.900  -0.7005   0.15676   0.15414   0.0362  1.0000  0.0231  -2.1250   0.0000   0.0000   0.0000   0.2932
 -12.800  -0.6993   0.15493   0.15231   0.0355  1.0000  0.0231  -2.1334   0.0000   0.0000   0.0000   0.2924
 -12.700  -0.6981   0.15308   0.15046   0.0348  1.0000  0.0231  -2.1424   0.0000   0.0000   0.0000   0.2915
 -12.600  -0.6970   0.15121   0.14860   0.0340  1.0000  0.0232  -2.1522   0.0000   0.0000   0.0000   0.2907
 -12.500  -0.6959   0.14932   0.14672   0.0333  1.0000  0.0232  -2.1627   0.0000   0.0000   0.0000   0.2898
 -12.400  -0.6949   0.14743   0.14482   0.0326  1.0000  0.0232  -2.1740   0.0000   0.0000   0.0000   0.2889
 -12.300  -0.6940   0.14551   0.14291   0.0319  1.0000  0.0232  -2.1861   0.0000   0.0000   0.0000   0.2880
 -12.200  -0.6932   0.14358   0.14098   0.0311  1.0000  0.0232  -2.2098   0.0000   0.0000   0.0000   0.2870
 -12.100  -0.6926   0.14163   0.13904   0.0304  1.0000  0.0232  -2.2359   0.0000   0.0000   0.0000   0.2861
 -12.000  -0.6920   0.13966   0.13707   0.0297  1.0000  0.0232  -2.2630   0.0000   0.0000   0.0000   0.2851
 -11.900  -0.6915   0.13768   0.13509   0.0289  1.0000  0.0232  -2.2914   0.0000   0.0000   0.0000   0.2841
 -11.800  -0.6911   0.13568   0.13310   0.0282  1.0000  0.0232  -2.3210   0.0000   0.0000   0.0000   0.2831
 -11.700  -0.6909   0.13366   0.13108   0.0274  1.0000  0.0232  -2.3520   0.0000   0.0000   0.0000   0.2821
 -11.600  -0.6908   0.13162   0.12905   0.0267  1.0000  0.0232  -2.3845   0.0000   0.0000   0.0000   0.2811
 -11.500  -0.6909   0.12955   0.12698   0.0259  1.0000  0.0232  -2.4185   0.0000   0.0000   0.0000   0.2800
 -11.400  -0.6910   0.12744   0.12487   0.0251  1.0000  0.0232  -2.4544   0.0000   0.0000   0.0000   0.2789
 -11.300  -0.6913   0.12528   0.12272   0.0243  1.0000  0.0232  -2.4924   0.0000   0.0000   0.0000   0.2778
 -11.200  -0.7082   0.12003   0.11750   0.0241  1.0000  0.0210  -2.6816   0.0000   0.0000   0.0000   0.2767
 -11.100  -0.7115   0.11751   0.11498   0.0232  1.0000  0.0202  -2.7462   0.0000   0.0000   0.0000   0.2754
 -11.000  -0.7142   0.11506   0.11254   0.0223  1.0000  0.0196  -2.8098   0.0000   0.0000   0.0000   0.2740
 -10.900  -0.7170   0.11251   0.11000   0.0212  1.0000  0.0191  -2.8811   0.0000   0.0000   0.0000   0.2725
 -10.800  -0.7202   0.10986   0.10736   0.0201  1.0000  0.0187  -2.9598   0.0000   0.0000   0.0000   0.2708
 -10.700  -0.7239   0.10707   0.10458   0.0188  1.0000  0.0183  -3.0469   0.0000   0.0000   0.0000   0.2689
 -10.600  -0.7280   0.10411   0.10163   0.0173  1.0000  0.0179  -3.1427   0.0000   0.0000   0.0000   0.2668
 -10.500  -0.8167   0.07095   0.06857  -0.0033  1.0000  0.0131  -5.2550   0.0000   0.0000   0.0000   0.2379
 -10.400  -0.8237   0.06610   0.06364  -0.0085  1.0000  0.0129  -5.3934   0.0000   0.0000   0.0000   0.2317
 -10.300  -0.8296   0.06282   0.06029  -0.0120  1.0000  0.0128  -5.4664   0.0000   0.0000   0.0000   0.2276
 -10.200  -0.8356   0.06022   0.05762  -0.0145  1.0000  0.0128  -5.5195   0.0000   0.0000   0.0000   0.2248
 -10.100  -0.8417   0.05805   0.05539  -0.0162  1.0000  0.0127  -5.5632   0.0000   0.0000   0.0000   0.2231
 -10.000  -0.8480   0.05617   0.05344  -0.0171  1.0000  0.0127  -5.6019   0.0000   0.0000   0.0000   0.2224
  -9.900  -0.8542   0.05448   0.05168  -0.0173  1.0000  0.0127  -5.6380   0.0000   0.0000   0.0000   0.2224
  -9.800  -0.8603   0.05288   0.05000  -0.0171  1.0000  0.0126  -5.6739   0.0000   0.0000   0.0000   0.2229
  -9.700  -0.8651   0.05112   0.04815  -0.0170  1.0000  0.0126  -5.7146   0.0000   0.0000   0.0000   0.2232
  -9.600  -0.8693   0.04925   0.04617  -0.0168  1.0000  0.0126  -5.7593   0.0000   0.0000   0.0000   0.2235
  -9.500  -0.8730   0.04730   0.04411  -0.0166  1.0000  0.0126  -5.8091   0.0000   0.0000   0.0000   0.2239
  -9.400  -0.8765   0.04527   0.04194  -0.0163  1.0000  0.0126  -5.8655   0.0000   0.0000   0.0000   0.2244
  -9.300  -0.8796   0.04314   0.03965  -0.0159  1.0000  0.0126  -5.9300   0.0000   0.0000   0.0000   0.2250
  -9.200  -0.8825   0.04089   0.03723  -0.0154  1.0000  0.0126  -6.0030   0.0000   0.0000   0.0000   0.2257
  -9.100  -0.8850   0.03856   0.03471  -0.0148  1.0000  0.0127  -6.0827   0.0000   0.0000   0.0000   0.2265
  -9.000  -0.8869   0.03619   0.03213  -0.0141  1.0000  0.0128  -6.1639   0.0000   0.0000   0.0000   0.2274
  -8.900  -0.8876   0.03390   0.02962  -0.0133  1.0000  0.0129  -6.2368   0.0000   0.0000   0.0000   0.2283
  -8.800  -0.8867   0.03181   0.02731  -0.0126  1.0000  0.0131  -6.2885   0.0000   0.0000   0.0000   0.2291
  -8.700  -0.8841   0.03002   0.02534  -0.0119  1.0000  0.0134  -6.3091   0.0000   0.0000   0.0000   0.2299
  -8.600  -0.8797   0.02858   0.02375  -0.0114  1.0000  0.0136  -6.2950   0.0000   0.0000   0.0000   0.2306
  -8.500  -0.8740   0.02745   0.02249  -0.0109  1.0000  0.0139  -6.2499   0.0000   0.0000   0.0000   0.2311
  -8.400  -0.8673   0.02656   0.02150  -0.0105  1.0000  0.0142  -6.1814   0.0000   0.0000   0.0000   0.2316
  -8.300  -0.8599   0.02582   0.02068  -0.0101  1.0000  0.0145  -6.0975   0.0000   0.0000   0.0000   0.2320
  -8.200  -0.8521   0.02517   0.01996  -0.0097  1.0000  0.0149  -6.0056   0.0000   0.0000   0.0000   0.2324
  -8.100  -0.8440   0.02457   0.01928  -0.0094  1.0000  0.0152  -5.9105   0.0000   0.0000   0.0000   0.2328
  -8.000  -0.8357   0.02398   0.01862  -0.0091  1.0000  0.0155  -5.8149   0.0000   0.0000   0.0000   0.2332
  -7.900  -0.8269   0.02357   0.01816  -0.0088  1.0000  0.0160  -5.7020   0.0000   0.0000   0.0000   0.2335
  -7.800  -0.8176   0.02334   0.01790  -0.0086  1.0000  0.0166  -5.5710   0.0000   0.0000   0.0000   0.2337
  -7.700  -0.8083   0.02310   0.01762  -0.0084  1.0000  0.0172  -5.4435   0.0000   0.0000   0.0000   0.2339
  -7.600  -0.7991   0.02276   0.01723  -0.0082  1.0000  0.0180  -5.3285   0.0000   0.0000   0.0000   0.2342
  -7.500  -0.7901   0.02231   0.01672  -0.0079  1.0000  0.0187  -5.2266   0.0000   0.0000   0.0000   0.2345
  -7.400  -0.7812   0.02173   0.01606  -0.0075  1.0000  0.0193  -5.1390   0.0000   0.0000   0.0000   0.2350
  -7.300  -0.7724   0.02107   0.01531  -0.0071  1.0000  0.0200  -5.0614   0.0000   0.0000   0.0000   0.2354
  -7.200  -0.7634   0.02044   0.01453  -0.0067  1.0000  0.0206  -4.9775   0.0000   0.0000   0.0000   0.2359
  -7.100  -0.7542   0.01993   0.01395  -0.0064  1.0000  0.0213  -4.8867   0.0000   0.0000   0.0000   0.2363
  -7.000  -0.7446   0.01954   0.01350  -0.0061  1.0000  0.0219  -4.7845   0.0000   0.0000   0.0000   0.2367
  -6.900  -0.7348   0.01928   0.01318  -0.0059  1.0000  0.0224  -4.6716   0.0000   0.0000   0.0000   0.2370
  -6.800  -0.7247   0.01913   0.01300  -0.0057  1.0000  0.0228  -4.5491   0.0000   0.0000   0.0000   0.2373
  -6.700  -0.7143   0.01910   0.01294  -0.0055  1.0000  0.0232  -4.4187   0.0000   0.0000   0.0000   0.2375
  -6.600  -0.7074   0.01761   0.01129  -0.0048  1.0000  0.0243  -4.3919   0.0000   0.0000   0.0000   0.2384
  -6.500  -0.7017   0.01596   0.00952  -0.0040  1.0000  0.0267  -4.3804   0.0000   0.0000   0.0000   0.2396
  -6.400  -0.6925   0.01557   0.00911  -0.0037  1.0000  0.0283  -4.2703   0.0000   0.0000   0.0000   0.2400
  -6.300  -0.6826   0.01544   0.00899  -0.0035  1.0000  0.0300  -4.1386   0.0000   0.0000   0.0000   0.2402
  -6.200  -0.6725   0.01534   0.00889  -0.0034  1.0000  0.0319  -4.0081   0.0000   0.0000   0.0000   0.2404
  -6.100  -0.6624   0.01521   0.00875  -0.0032  1.0000  0.0337  -3.8837   0.0000   0.0000   0.0000   0.2407
  -6.000  -0.6523   0.01506   0.00858  -0.0030  1.0000  0.0354  -3.7636   0.0000   0.0000   0.0000   0.2410
  -5.900  -0.6422   0.01492   0.00841  -0.0028  1.0000  0.0368  -3.6441   0.0000   0.0000   0.0000   0.2413
  -5.800  -0.6321   0.01480   0.00826  -0.0026  1.0000  0.0378  -3.5240   0.0000   0.0000   0.0000   0.2417
  -5.700  -0.6218   0.01473   0.00817  -0.0025  1.0000  0.0384  -3.4017   0.0000   0.0000   0.0000   0.2420
  -5.600  -0.6114   0.01469   0.00811  -0.0023  1.0000  0.0389  -3.2786   0.0000   0.0000   0.0000   0.2422
  -5.500  -0.6010   0.01468   0.00808  -0.0021  1.0000  0.0392  -3.1558   0.0000   0.0000   0.0000   0.2425
  -5.400  -0.5934   0.01378   0.00709  -0.0015  1.0000  0.0406  -3.1021   0.0000   0.0000   0.0000   0.2435
  -5.300  -0.5851   0.01319   0.00645  -0.0010  1.0000  0.0421  -3.0339   0.0000   0.0000   0.0000   0.2444
  -5.200  -0.5762   0.01279   0.00601  -0.0006  1.0000  0.0438  -2.9553   0.0000   0.0000   0.0000   0.2452
  -5.100  -0.5669   0.01249   0.00569  -0.0003  1.0000  0.0454  -2.8698   0.0000   0.0000   0.0000   0.2458
  -5.000  -0.5575   0.01225   0.00541   0.0000  1.0000  0.0467  -2.7800   0.0000   0.0000   0.0000   0.2465
  -4.900  -0.5479   0.01204   0.00517   0.0004  1.0000  0.0479  -2.6932   0.0000   0.0000   0.0000   0.2471
  -4.800  -0.5383   0.01183   0.00495   0.0007  1.0000  0.0490  -2.6071   0.0000   0.0000   0.0000   0.2477
  -4.700  -0.5287   0.01165   0.00475   0.0010  1.0000  0.0504  -2.5201   0.0000   0.0000   0.0000   0.2484
  -4.600  -0.5190   0.01147   0.00455   0.0013  1.0000  0.0519  -2.4343   0.0000   0.0000   0.0000   0.2491
  -4.500  -0.5094   0.01128   0.00435   0.0016  1.0000  0.0535  -2.3510   0.0000   0.0000   0.0000   0.2498
  -4.400  -0.4997   0.01110   0.00413   0.0019  1.0000  0.0551  -2.2700   0.0000   0.0000   0.0000   0.2505
  -4.300  -0.4900   0.01094   0.00395   0.0022  1.0000  0.0569  -2.1885   0.0000   0.0000   0.0000   0.2513
  -4.200  -0.4801   0.01082   0.00380   0.0025  1.0000  0.0584  -2.1054   0.0000   0.0000   0.0000   0.2520
  -4.100  -0.4709   0.01049   0.00346   0.0029  1.0000  0.0651  -2.0371   0.0000   0.0000   0.0000   0.2531
  -4.000  -0.4614   0.01027   0.00329   0.0032  1.0000  0.0724  -1.9593   0.0000   0.0000   0.0000   0.2540
  -3.900  -0.4517   0.01011   0.00315   0.0035  1.0000  0.0794  -1.8886   0.0000   0.0000   0.0000   0.2548
  -3.800  -0.4425   0.00982   0.00297   0.0038  1.0000  0.1007  -1.8276   0.0000   0.0000   0.0000   0.2557
  -3.700  -0.4335   0.00950   0.00282   0.0041  1.0000  0.1337  -1.7648   0.0000   0.0000   0.0000   0.2566
  -3.600  -0.4243   0.00922   0.00270   0.0044  1.0000  0.1683  -1.7003   0.0000   0.0000   0.0000   0.2574
  -3.500  -0.4151   0.00897   0.00260   0.0046  1.0000  0.2011  -1.6350   0.0000   0.0000   0.0000   0.2583
  -3.400  -0.4057   0.00875   0.00248   0.0048  1.0000  0.2326  -1.5683   0.0000   0.0000   0.0000   0.2592
  -3.200  -0.3867   0.00835   0.00233   0.0053  1.0000  0.2921  -1.4617   0.0000   0.0000   0.0000   0.2610
  -3.100  -0.3772   0.00817   0.00226   0.0055  1.0000  0.3215  -1.4197   0.0000   0.0000   0.0000   0.2620
  -3.000  -0.3675   0.00800   0.00220   0.0057  1.0000  0.3502  -1.3777   0.0000   0.0000   0.0000   0.2630
  -2.800  -0.3482   0.00769   0.00210   0.0061  1.0000  0.4057  -1.2941   0.0000   0.0000   0.0000   0.2652
  -2.700  -0.3385   0.00754   0.00206   0.0064  1.0000  0.4331  -1.2525   0.0000   0.0000   0.0000   0.2664
  -2.600  -0.3288   0.00740   0.00202   0.0066  1.0000  0.4599  -1.2110   0.0000   0.0000   0.0000   0.2677
  -2.500  -0.3190   0.00726   0.00199   0.0068  1.0000  0.4875  -1.1698   0.0000   0.0000   0.0000   0.2691
  -2.400  -0.3093   0.00713   0.00196   0.0070  1.0000  0.5161  -1.1288   0.0000   0.0000   0.0000   0.2705
  -2.300  -0.2996   0.00698   0.00194   0.0073  1.0000  0.5460  -1.0884   0.0000   0.0000   0.0000   0.2722
  -2.200  -0.2899   0.00684   0.00193   0.0075  1.0000  0.5772  -1.0482   0.0000   0.0000   0.0000   0.2739
  -2.100  -0.2802   0.00671   0.00190   0.0078  1.0000  0.6088  -1.0086   0.0000   0.0000   0.0000   0.2758
  -2.000  -0.2706   0.00657   0.00190   0.0081  1.0000  0.6388  -0.9690   0.0000   0.0000   0.0000   0.2780
  -1.900  -0.2608   0.00646   0.00190   0.0084  1.0000  0.6675  -0.9297   0.0000   0.0000   0.0000   0.2803
  -1.800  -0.2510   0.00636   0.00190   0.0087  1.0000  0.6939  -0.8905   0.0000   0.0000   0.0000   0.2828
  -1.700  -0.2413   0.00626   0.00191   0.0091  1.0000  0.7213  -0.8518   0.0000   0.0000   0.0000   0.2857
  -1.600  -0.2316   0.00617   0.00193   0.0094  1.0000  0.7491  -0.8135   0.0000   0.0000   0.0000   0.2889
  -1.500  -0.2221   0.00609   0.00196   0.0099  1.0000  0.7760  -0.7757   0.0000   0.0000   0.0000   0.2926
  -1.400  -0.2126   0.00602   0.00200   0.0103  1.0000  0.8013  -0.7384   0.0000   0.0000   0.0000   0.2968
  -1.300  -0.2030   0.00597   0.00203   0.0108  1.0000  0.8235  -0.7014   0.0000   0.0000   0.0000   0.3013
  -1.200  -0.1935   0.00595   0.00207   0.0112  1.0000  0.8434  -0.6648   0.0000   0.0000   0.0000   0.3063
  -1.100  -0.1843   0.00593   0.00211   0.0118  1.0000  0.8637  -0.6290   0.0000   0.0000   0.0000   0.3123
  -1.000  -0.1728   0.00592   0.00216   0.0119  0.9989  0.8846  -0.5895   0.0000   0.0000   0.0000   0.3172
  -0.900  -0.1580   0.00591   0.00219   0.0113  0.9963  0.9038  -0.5514   0.0000   0.0000   0.0000   0.3202
  -0.800  -0.1424   0.00593   0.00224   0.0106  0.9940  0.9195  -0.5170   0.0000   0.0000   0.0000   0.3227
  -0.700  -0.1260   0.00595   0.00226   0.0096  0.9919  0.9325  -0.4822   0.0000   0.0000   0.0000   0.3245
  -0.600  -0.1087   0.00597   0.00229   0.0084  0.9901  0.9411  -0.4467   0.0000   0.0000   0.0000   0.3258
  -0.500  -0.0924   0.00598   0.00231   0.0074  0.9873  0.9500  -0.4128   0.0000   0.0000   0.0000   0.3289
  -0.400  -0.0756   0.00600   0.00232   0.0063  0.9845  0.9571  -0.3787   0.0000   0.0000   0.0000   0.3320
  -0.300  -0.0563   0.00601   0.00233   0.0047  0.9826  0.9620  -0.3493   0.0000   0.0000   0.0000   0.3312
  -0.200  -0.0371   0.00602   0.00234   0.0030  0.9805  0.9667  -0.3260   0.0000   0.0000   0.0000   0.3295
  -0.100  -0.0184   0.00603   0.00235   0.0015  0.9781  0.9714  -0.3034   0.0000   0.0000   0.0000   0.3285
   0.000   0.0000   0.00603   0.00229  -0.0000  0.9755  0.9755  -0.2811   0.0000   0.0000   0.0000   0.4639
   0.100   0.0184   0.00603   0.00235  -0.0015  0.9714  0.9781  -0.3034   0.0000   0.0000   0.0000   0.3285
   0.200   0.0371   0.00602   0.00234  -0.0030  0.9667  0.9805  -0.3260   0.0000   0.0000   0.0000   0.3295
   0.300   0.0563   0.00601   0.00233  -0.0047  0.9620  0.9826  -0.3493   0.0000   0.0000   0.0000   0.3312
   0.400   0.0756   0.00600   0.00232  -0.0063  0.9571  0.9845  -0.3787   0.0000   0.0000   0.0000   0.3320
   0.500   0.0924   0.00598   0.00231  -0.0074  0.9500  0.9873  -0.4128   0.0000   0.0000   0.0000   0.3289
   0.600   0.1087   0.00597   0.00229  -0.0084  0.9411  0.9901  -0.4467   0.0000   0.0000   0.0000   0.3258
   0.700   0.1260   0.00595   0.00226  -0.0096  0.9325  0.9919  -0.4822   0.0000   0.0000   0.0000   0.3245
   0.800   0.1424   0.00593   0.00223  -0.0106  0.9195  0.9940  -0.5170   0.0000   0.0000   0.0000   0.3227
   0.900   0.1580   0.00591   0.00219  -0.0113  0.9038  0.9963  -0.5514   0.0000   0.0000   0.0000   0.3202
   1.000   0.1728   0.00592   0.00216  -0.0119  0.8846  0.9989  -0.5895   0.0000   0.0000   0.0000   0.3172
   1.100   0.1842   0.00593   0.00211  -0.0118  0.8637  1.0000  -0.6289   0.0000   0.0000   0.0000   0.3122
   1.200   0.1934   0.00595   0.00207  -0.0112  0.8434  1.0000  -0.6647   0.0000   0.0000   0.0000   0.3063
   1.300   0.2030   0.00597   0.00203  -0.0108  0.8235  1.0000  -0.7013   0.0000   0.0000   0.0000   0.3013
   1.400   0.2125   0.00602   0.00199  -0.0103  0.8013  1.0000  -0.7383   0.0000   0.0000   0.0000   0.2968
   1.500   0.2220   0.00608   0.00196  -0.0099  0.7760  1.0000  -0.7757   0.0000   0.0000   0.0000   0.2926
   1.600   0.2316   0.00617   0.00193  -0.0094  0.7491  1.0000  -0.8134   0.0000   0.0000   0.0000   0.2888
   1.700   0.2413   0.00626   0.00191  -0.0091  0.7213  1.0000  -0.8517   0.0000   0.0000   0.0000   0.2856
   1.800   0.2510   0.00635   0.00190  -0.0087  0.6940  1.0000  -0.8904   0.0000   0.0000   0.0000   0.2828
   1.900   0.2608   0.00645   0.00190  -0.0084  0.6675  1.0000  -0.9296   0.0000   0.0000   0.0000   0.2803
   2.000   0.2705   0.00657   0.00190  -0.0081  0.6389  1.0000  -0.9689   0.0000   0.0000   0.0000   0.2779
   2.100   0.2802   0.00671   0.00190  -0.0078  0.6088  1.0000  -1.0085   0.0000   0.0000   0.0000   0.2758
   2.200   0.2899   0.00684   0.00193  -0.0075  0.5772  1.0000  -1.0481   0.0000   0.0000   0.0000   0.2739
   2.300   0.2996   0.00698   0.00194  -0.0073  0.5461  1.0000  -1.0883   0.0000   0.0000   0.0000   0.2721
   2.400   0.3092   0.00713   0.00196  -0.0070  0.5161  1.0000  -1.1287   0.0000   0.0000   0.0000   0.2705
   2.500   0.3190   0.00726   0.00199  -0.0068  0.4875  1.0000  -1.1697   0.0000   0.0000   0.0000   0.2690
   2.600   0.3287   0.00740   0.00202  -0.0066  0.4600  1.0000  -1.2109   0.0000   0.0000   0.0000   0.2677
   2.700   0.3385   0.00754   0.00206  -0.0064  0.4331  1.0000  -1.2524   0.0000   0.0000   0.0000   0.2664
   2.800   0.3482   0.00768   0.00210  -0.0061  0.4058  1.0000  -1.2940   0.0000   0.0000   0.0000   0.2652
   3.000   0.3675   0.00800   0.00220  -0.0057  0.3502  1.0000  -1.3776   0.0000   0.0000   0.0000   0.2630
   3.100   0.3771   0.00817   0.00226  -0.0055  0.3215  1.0000  -1.4196   0.0000   0.0000   0.0000   0.2620
   3.200   0.3867   0.00835   0.00233  -0.0053  0.2921  1.0000  -1.4616   0.0000   0.0000   0.0000   0.2610
   3.400   0.4056   0.00875   0.00248  -0.0048  0.2327  1.0000  -1.5681   0.0000   0.0000   0.0000   0.2592
   3.500   0.4150   0.00897   0.00260  -0.0046  0.2012  1.0000  -1.6348   0.0000   0.0000   0.0000   0.2583
   3.600   0.4243   0.00922   0.00270  -0.0043  0.1684  1.0000  -1.7001   0.0000   0.0000   0.0000   0.2574
   3.700   0.4334   0.00949   0.00282  -0.0041  0.1338  1.0000  -1.7647   0.0000   0.0000   0.0000   0.2566
   3.800   0.4424   0.00982   0.00297  -0.0038  0.1007  1.0000  -1.8274   0.0000   0.0000   0.0000   0.2557
   3.900   0.4516   0.01011   0.00315  -0.0035  0.0794  1.0000  -1.8884   0.0000   0.0000   0.0000   0.2548
   4.000   0.4614   0.01027   0.00329  -0.0032  0.0724  1.0000  -1.9591   0.0000   0.0000   0.0000   0.2539
   4.100   0.4709   0.01049   0.00346  -0.0029  0.0651  1.0000  -2.0369   0.0000   0.0000   0.0000   0.2531
   4.200   0.4801   0.01082   0.00380  -0.0025  0.0584  1.0000  -2.1052   0.0000   0.0000   0.0000   0.2520
   4.300   0.4899   0.01094   0.00395  -0.0022  0.0569  1.0000  -2.1883   0.0000   0.0000   0.0000   0.2513
   4.400   0.4997   0.01110   0.00413  -0.0019  0.0551  1.0000  -2.2698   0.0000   0.0000   0.0000   0.2505
   4.500   0.5093   0.01128   0.00435  -0.0016  0.0535  1.0000  -2.3509   0.0000   0.0000   0.0000   0.2498
   4.600   0.5190   0.01147   0.00455  -0.0013  0.0519  1.0000  -2.4342   0.0000   0.0000   0.0000   0.2490
   4.700   0.5286   0.01165   0.00475  -0.0010  0.0504  1.0000  -2.5199   0.0000   0.0000   0.0000   0.2484
   4.800   0.5383   0.01183   0.00495  -0.0007  0.0490  1.0000  -2.6069   0.0000   0.0000   0.0000   0.2477
   4.900   0.5479   0.01203   0.00517  -0.0004  0.0479  1.0000  -2.6931   0.0000   0.0000   0.0000   0.2471
   5.000   0.5574   0.01225   0.00541  -0.0000  0.0467  1.0000  -2.7799   0.0000   0.0000   0.0000   0.2464
   5.100   0.5669   0.01249   0.00569   0.0003  0.0454  1.0000  -2.8697   0.0000   0.0000   0.0000   0.2458
   5.200   0.5762   0.01279   0.00601   0.0006  0.0438  1.0000  -2.9552   0.0000   0.0000   0.0000   0.2452
   5.300   0.5850   0.01319   0.00645   0.0010  0.0421  1.0000  -3.0338   0.0000   0.0000   0.0000   0.2444
   5.400   0.5934   0.01378   0.00709   0.0015  0.0406  1.0000  -3.1020   0.0000   0.0000   0.0000   0.2435
   5.500   0.6010   0.01468   0.00808   0.0021  0.0392  1.0000  -3.1557   0.0000   0.0000   0.0000   0.2425
   5.600   0.6114   0.01469   0.00811   0.0023  0.0389  1.0000  -3.2785   0.0000   0.0000   0.0000   0.2422
   5.700   0.6218   0.01473   0.00817   0.0025  0.0384  1.0000  -3.4016   0.0000   0.0000   0.0000   0.2419
   5.800   0.6321   0.01480   0.00826   0.0026  0.0378  1.0000  -3.5239   0.0000   0.0000   0.0000   0.2417
   5.900   0.6422   0.01492   0.00841   0.0028  0.0368  1.0000  -3.6441   0.0000   0.0000   0.0000   0.2413
   6.000   0.6523   0.01506   0.00858   0.0030  0.0354  1.0000  -3.7636   0.0000   0.0000   0.0000   0.2410
   6.100   0.6624   0.01521   0.00875   0.0032  0.0337  1.0000  -3.8837   0.0000   0.0000   0.0000   0.2407
   6.200   0.6725   0.01534   0.00889   0.0034  0.0319  1.0000  -4.0080   0.0000   0.0000   0.0000   0.2404
   6.300   0.6826   0.01544   0.00899   0.0035  0.0300  1.0000  -4.1386   0.0000   0.0000   0.0000   0.2402
   6.400   0.6925   0.01557   0.00911   0.0037  0.0283  1.0000  -4.2703   0.0000   0.0000   0.0000   0.2400
   6.500   0.7017   0.01596   0.00951   0.0040  0.0267  1.0000  -4.3804   0.0000   0.0000   0.0000   0.2396
   6.600   0.7074   0.01761   0.01129   0.0048  0.0243  1.0000  -4.3918   0.0000   0.0000   0.0000   0.2384
   6.700   0.7144   0.01910   0.01294   0.0055  0.0232  1.0000  -4.4188   0.0000   0.0000   0.0000   0.2375
   6.800   0.7247   0.01913   0.01300   0.0057  0.0228  1.0000  -4.5493   0.0000   0.0000   0.0000   0.2373
   6.900   0.7348   0.01928   0.01318   0.0059  0.0224  1.0000  -4.6717   0.0000   0.0000   0.0000   0.2370
   7.000   0.7447   0.01954   0.01350   0.0061  0.0219  1.0000  -4.7846   0.0000   0.0000   0.0000   0.2367
   7.100   0.7542   0.01993   0.01395   0.0064  0.0213  1.0000  -4.8869   0.0000   0.0000   0.0000   0.2363
   7.200   0.7635   0.02044   0.01453   0.0067  0.0206  1.0000  -4.9776   0.0000   0.0000   0.0000   0.2359
   7.300   0.7724   0.02107   0.01531   0.0071  0.0200  1.0000  -5.0615   0.0000   0.0000   0.0000   0.2354
   7.400   0.7813   0.02173   0.01606   0.0075  0.0193  1.0000  -5.1392   0.0000   0.0000   0.0000   0.2350
   7.500   0.7901   0.02231   0.01672   0.0079  0.0186  1.0000  -5.2268   0.0000   0.0000   0.0000   0.2345
   7.600   0.7992   0.02276   0.01723   0.0081  0.0180  1.0000  -5.3288   0.0000   0.0000   0.0000   0.2342
   7.700   0.8084   0.02310   0.01762   0.0084  0.0172  1.0000  -5.4439   0.0000   0.0000   0.0000   0.2339
   7.800   0.8177   0.02334   0.01790   0.0086  0.0166  1.0000  -5.5714   0.0000   0.0000   0.0000   0.2337
   7.900   0.8270   0.02357   0.01816   0.0088  0.0160  1.0000  -5.7024   0.0000   0.0000   0.0000   0.2335
   8.000   0.8357   0.02399   0.01862   0.0091  0.0155  1.0000  -5.8152   0.0000   0.0000   0.0000   0.2332
   8.100   0.8440   0.02457   0.01928   0.0094  0.0152  1.0000  -5.9109   0.0000   0.0000   0.0000   0.2328
   8.200   0.8521   0.02517   0.01996   0.0097  0.0149  1.0000  -6.0060   0.0000   0.0000   0.0000   0.2324
   8.300   0.8600   0.02582   0.02068   0.0101  0.0145  1.0000  -6.0979   0.0000   0.0000   0.0000   0.2320
   8.400   0.8674   0.02656   0.02150   0.0104  0.0142  1.0000  -6.1818   0.0000   0.0000   0.0000   0.2316
   8.500   0.8741   0.02746   0.02250   0.0109  0.0139  1.0000  -6.2502   0.0000   0.0000   0.0000   0.2311
   8.600   0.8798   0.02859   0.02375   0.0113  0.0136  1.0000  -6.2952   0.0000   0.0000   0.0000   0.2306
   8.700   0.8842   0.03003   0.02535   0.0119  0.0134  1.0000  -6.3092   0.0000   0.0000   0.0000   0.2299
   8.800   0.8868   0.03182   0.02733   0.0126  0.0131  1.0000  -6.2884   0.0000   0.0000   0.0000   0.2291
   8.900   0.8877   0.03391   0.02963   0.0133  0.0129  1.0000  -6.2363   0.0000   0.0000   0.0000   0.2283
   9.000   0.8870   0.03621   0.03215   0.0140  0.0128  1.0000  -6.1633   0.0000   0.0000   0.0000   0.2274
   9.100   0.8851   0.03858   0.03473   0.0147  0.0127  1.0000  -6.0819   0.0000   0.0000   0.0000   0.2266
   9.200   0.8827   0.04092   0.03726   0.0153  0.0126  1.0000  -6.0020   0.0000   0.0000   0.0000   0.2258
   9.300   0.8798   0.04317   0.03968   0.0158  0.0126  1.0000  -5.9291   0.0000   0.0000   0.0000   0.2251
   9.400   0.8766   0.04530   0.04198   0.0162  0.0126  1.0000  -5.8645   0.0000   0.0000   0.0000   0.2245
   9.500   0.8732   0.04734   0.04415   0.0166  0.0126  1.0000  -5.8081   0.0000   0.0000   0.0000   0.2240
   9.600   0.8695   0.04929   0.04621   0.0168  0.0126  1.0000  -5.7583   0.0000   0.0000   0.0000   0.2236
   9.700   0.8654   0.05116   0.04819   0.0169  0.0126  1.0000  -5.7135   0.0000   0.0000   0.0000   0.2233
   9.800   0.8605   0.05293   0.05006   0.0170  0.0126  1.0000  -5.6727   0.0000   0.0000   0.0000   0.2230
   9.900   0.8546   0.05454   0.05174   0.0172  0.0127  1.0000  -5.6366   0.0000   0.0000   0.0000   0.2225
  10.000   0.8483   0.05624   0.05351   0.0169  0.0127  1.0000  -5.6002   0.0000   0.0000   0.0000   0.2226
  10.100   0.8421   0.05813   0.05547   0.0160  0.0127  1.0000  -5.5613   0.0000   0.0000   0.0000   0.2234
  10.200   0.8360   0.06033   0.05773   0.0143  0.0128  1.0000  -5.5170   0.0000   0.0000   0.0000   0.2251
  10.300   0.8301   0.06295   0.06043   0.0117  0.0128  1.0000  -5.4631   0.0000   0.0000   0.0000   0.2279
  10.400   0.8243   0.06630   0.06384   0.0081  0.0129  1.0000  -5.3882   0.0000   0.0000   0.0000   0.2321
  10.500   0.8170   0.07139   0.06902   0.0026  0.0131  1.0000  -5.2379   0.0000   0.0000   0.0000   0.2387
  10.600   0.7289   0.10431   0.10183  -0.0177  0.0179  1.0000  -3.1358   0.0000   0.0000   0.0000   0.2672
  10.700   0.7249   0.10726   0.10478  -0.0191  0.0183  1.0000  -3.0403   0.0000   0.0000   0.0000   0.2694
  10.800   0.7213   0.11005   0.10755  -0.0204  0.0187  1.0000  -2.9538   0.0000   0.0000   0.0000   0.2712
  10.900   0.7182   0.11270   0.11019  -0.0216  0.0192  1.0000  -2.8757   0.0000   0.0000   0.0000   0.2729
  11.000   0.7154   0.11523   0.11272  -0.0226  0.0197  1.0000  -2.8052   0.0000   0.0000   0.0000   0.2745
  11.100   0.7128   0.11768   0.11515  -0.0236  0.0203  1.0000  -2.7424   0.0000   0.0000   0.0000   0.2758
  11.200   0.7090   0.12026   0.11773  -0.0244  0.0212  1.0000  -2.6752   0.0000   0.0000   0.0000   0.2771
  11.300   0.6927   0.12543   0.12288  -0.0246  0.0232  1.0000  -2.4908   0.0000   0.0000   0.0000   0.2782
  11.400   0.6925   0.12759   0.12503  -0.0254  0.0232  1.0000  -2.4531   0.0000   0.0000   0.0000   0.2793
  11.500   0.6924   0.12970   0.12714  -0.0262  0.0232  1.0000  -2.4174   0.0000   0.0000   0.0000   0.2804
  11.600   0.6924   0.13177   0.12920  -0.0270  0.0232  1.0000  -2.3835   0.0000   0.0000   0.0000   0.2815
  11.700   0.6925   0.13382   0.13124  -0.0278  0.0232  1.0000  -2.3512   0.0000   0.0000   0.0000   0.2825
  11.800   0.6927   0.13584   0.13325  -0.0285  0.0232  1.0000  -2.3204   0.0000   0.0000   0.0000   0.2836
  11.900   0.6931   0.13784   0.13525  -0.0293  0.0232  1.0000  -2.2909   0.0000   0.0000   0.0000   0.2846
  12.000   0.6936   0.13982   0.13723  -0.0300  0.0232  1.0000  -2.2627   0.0000   0.0000   0.0000   0.2855
  12.100   0.6942   0.14179   0.13919  -0.0308  0.0232  1.0000  -2.2357   0.0000   0.0000   0.0000   0.2865
  12.200   0.6949   0.14374   0.14114  -0.0315  0.0232  1.0000  -2.2098   0.0000   0.0000   0.0000   0.2874
  12.300   0.6957   0.14567   0.14307  -0.0322  0.0232  1.0000  -2.1881   0.0000   0.0000   0.0000   0.2884
  12.400   0.6966   0.14759   0.14498  -0.0330  0.0232  1.0000  -2.1761   0.0000   0.0000   0.0000   0.2893
  12.500   0.6976   0.14949   0.14688  -0.0337  0.0232  1.0000  -2.1649   0.0000   0.0000   0.0000   0.2902
  12.600   0.6987   0.15138   0.14877  -0.0344  0.0232  1.0000  -2.1544   0.0000   0.0000   0.0000   0.2911
  12.700   0.6998   0.15325   0.15063  -0.0351  0.0231  1.0000  -2.1448   0.0000   0.0000   0.0000   0.2919
  12.800   0.7010   0.15510   0.15249  -0.0358  0.0231  1.0000  -2.1358   0.0000   0.0000   0.0000   0.2928
  12.900   0.7023   0.15694   0.15432  -0.0365  0.0231  1.0000  -2.1274   0.0000   0.0000   0.0000   0.2936
  13.000   0.7036   0.15875   0.15613  -0.0372  0.0231  1.0000  -2.1197   0.0000   0.0000   0.0000   0.2945
  13.100   0.7049   0.16054   0.15792  -0.0379  0.0231  1.0000  -2.1125   0.0000   0.0000   0.0000   0.2953
  13.200   0.7063   0.16232   0.15969  -0.0386  0.0231  1.0000  -2.1058   0.0000   0.0000   0.0000   0.2961
  13.300   0.7078   0.16410   0.16151  -0.0393  0.0231  1.0000  -2.0967   0.0000   0.0000   0.0000   0.2969
  13.400   0.7093   0.16586   0.16327  -0.0400  0.0230  1.0000  -2.0896   0.0000   0.0000   0.0000   0.2976
  13.500   0.7110   0.16760   0.16501  -0.0407  0.0230  1.0000  -2.0839   0.0000   0.0000   0.0000   0.2984
  13.600   0.7127   0.16933   0.16674  -0.0414  0.0230  1.0000  -2.0790   0.0000   0.0000   0.0000   0.2992
  13.700   0.7144   0.17105   0.16845  -0.0421  0.0230  1.0000  -2.0748   0.0000   0.0000   0.0000   0.3000
  13.800   0.7163   0.17274   0.17014  -0.0428  0.0229  1.0000  -2.0710   0.0000   0.0000   0.0000   0.3007
  13.900   0.7182   0.17442   0.17182  -0.0435  0.0229  1.0000  -2.0679   0.0000   0.0000   0.0000   0.3015
  14.000   0.7202   0.17607   0.17346  -0.0443  0.0229  1.0000  -2.0652   0.0000   0.0000   0.0000   0.3022
  14.100   0.7222   0.17769   0.17508  -0.0450  0.0228  1.0000  -2.0631   0.0000   0.0000   0.0000   0.3030
  14.200   0.7244   0.17927   0.17666  -0.0457  0.0228  1.0000  -2.0616   0.0000   0.0000   0.0000   0.3037
  14.300   0.7266   0.18081   0.17820  -0.0465  0.0227  1.0000  -2.0607   0.0000   0.0000   0.0000   0.3045
  14.400   0.7290   0.18229   0.17968  -0.0473  0.0226  1.0000  -2.0606   0.0000   0.0000   0.0000   0.3052
  14.500   0.7314   0.18369   0.18108  -0.0481  0.0224  1.0000  -2.0607   0.0000   0.0000   0.0000   0.3061
  14.600   0.7334   0.18502   0.18241  -0.0491  0.0222  1.0000  -2.0491   0.0000   0.0000   0.0000   0.3072
  14.700   0.7353   0.18632   0.18370  -0.0504  0.0218  1.0000  -2.0309   0.0000   0.0000   0.0000   0.3087
  14.800   0.7376   0.18769   0.18507  -0.0516  0.0213  1.0000  -2.0112   0.0000   0.0000   0.0000   0.3100
  14.900   0.7401   0.18920   0.18658  -0.0527  0.0206  1.0000  -1.9957   0.0000   0.0000   0.0000   0.3111
  15.000   0.7426   0.19076   0.18814  -0.0536  0.0200  1.0000  -1.9863   0.0000   0.0000   0.0000   0.3121


