xflr5 v6.61

 Calculated polar for: NACA 0008

 1 1 Reynolds number fixed          Mach number fixed         

 xtrf =   1.000 (top)        1.000 (bottom)
 Mach =   0.000     Re =     0.300 e 6     Ncrit =   9.000

  alpha     CL        CD       CDp       Cm    Top Xtr Bot Xtr   Cpmin    Chinge    XCp    
 ------- -------- --------- --------- -------- ------- ------- -------- --------- ---------
 -13.000  -0.7028   0.15828   0.15525   0.0349  1.0000  0.0234  -2.2081   0.0000   0.0000   0.0000   0.2912
 -12.900  -0.7016   0.15640   0.15338   0.0342  1.0000  0.0234  -2.2187   0.0000   0.0000   0.0000   0.2904
 -12.800  -0.7005   0.15450   0.15148   0.0335  1.0000  0.0234  -2.2300   0.0000   0.0000   0.0000   0.2895
 -12.700  -0.6994   0.15258   0.14957   0.0328  1.0000  0.0234  -2.2420   0.0000   0.0000   0.0000   0.2886
 -12.600  -0.7112   0.14655   0.14365   0.0312  1.0000  0.0240  -2.4554   0.0000   0.0000   0.0000   0.2854
 -12.500  -0.7138   0.14378   0.14088   0.0304  1.0000  0.0243  -2.5044   0.0000   0.0000   0.0000   0.2843
 -12.400  -0.7148   0.14154   0.13865   0.0298  1.0000  0.0245  -2.5353   0.0000   0.0000   0.0000   0.2834
 -12.300  -0.7151   0.13952   0.13663   0.0292  1.0000  0.0247  -2.5569   0.0000   0.0000   0.0000   0.2826
 -12.200  -0.7152   0.13761   0.13472   0.0286  1.0000  0.0249  -2.5735   0.0000   0.0000   0.0000   0.2819
 -12.100  -0.7151   0.13576   0.13288   0.0280  1.0000  0.0251  -2.5878   0.0000   0.0000   0.0000   0.2812
 -12.000  -0.7149   0.13394   0.13101   0.0274  1.0000  0.0253  -2.6013   0.0000   0.0000   0.0000   0.2804
 -11.900  -0.7139   0.13236   0.12944   0.0271  1.0000  0.0255  -2.5989   0.0000   0.0000   0.0000   0.2801
 -11.800  -0.7130   0.13079   0.12787   0.0267  1.0000  0.0257  -2.5975   0.0000   0.0000   0.0000   0.2797
 -11.700  -0.3085   0.05348   0.05101  -0.0184  1.0000  0.0370  -1.5357   0.0000   0.0000   0.0000   0.1898
 -11.600  -0.3086   0.05169   0.04923  -0.0191  1.0000  0.0357  -1.5712   0.0000   0.0000   0.0000   0.1876
 -11.500  -0.3088   0.05007   0.04762  -0.0199  1.0000  0.0350  -1.6081   0.0000   0.0000   0.0000   0.1852
 -11.400  -0.3093   0.04847   0.04601  -0.0207  1.0000  0.0345  -1.6488   0.0000   0.0000   0.0000   0.1826
 -11.300  -0.3102   0.04684   0.04439  -0.0215  1.0000  0.0340  -1.6937   0.0000   0.0000   0.0000   0.1799
 -11.200  -0.3115   0.04517   0.04274  -0.0225  1.0000  0.0336  -1.7432   0.0000   0.0000   0.0000   0.1771
 -11.100  -0.3132   0.04346   0.04103  -0.0235  1.0000  0.0332  -1.7982   0.0000   0.0000   0.0000   0.1742
 -11.000  -0.3156   0.04168   0.03926  -0.0246  1.0000  0.0328  -1.8599   0.0000   0.0000   0.0000   0.1712
 -10.900  -0.3187   0.03981   0.03740  -0.0258  1.0000  0.0324  -1.9307   0.0000   0.0000   0.0000   0.1681
 -10.500  -0.7164   0.10293   0.10007   0.0151  1.0000  0.0223  -3.1751   0.0000   0.0000   0.0000   0.2641
 -10.400  -0.7218   0.09990   0.09704   0.0137  1.0000  0.0219  -3.2626   0.0000   0.0000   0.0000   0.2620
 -10.300  -0.7265   0.09695   0.09411   0.0122  1.0000  0.0217  -3.3439   0.0000   0.0000   0.0000   0.2599
 -10.200  -0.7313   0.09393   0.09111   0.0105  1.0000  0.0215  -3.4269   0.0000   0.0000   0.0000   0.2575
 -10.100  -0.7363   0.09079   0.08804   0.0087  1.0000  0.0213  -3.5148   0.0000   0.0000   0.0000   0.2550
 -10.000  -0.7417   0.08741   0.08467   0.0065  1.0000  0.0210  -3.6109   0.0000   0.0000   0.0000   0.2520
  -9.900  -0.7479   0.08367   0.08095   0.0039  1.0000  0.0208  -3.7198   0.0000   0.0000   0.0000   0.2485
  -9.800  -0.7553   0.07908   0.07638   0.0001  1.0000  0.0205  -3.8579   0.0000   0.0000   0.0000   0.2435
  -9.700  -0.7663   0.07210   0.06939  -0.0071  1.0000  0.0200  -4.0732   0.0000   0.0000   0.0000   0.2341
  -9.600  -0.7766   0.06798   0.06521  -0.0113  1.0000  0.0197  -4.1942   0.0000   0.0000   0.0000   0.2289
  -9.500  -0.7865   0.06495   0.06212  -0.0137  1.0000  0.0195  -4.2846   0.0000   0.0000   0.0000   0.2262
  -9.400  -0.7961   0.06242   0.05953  -0.0147  1.0000  0.0194  -4.3639   0.0000   0.0000   0.0000   0.2251
  -9.300  -0.8049   0.06001   0.05704  -0.0152  1.0000  0.0192  -4.4438   0.0000   0.0000   0.0000   0.2248
  -9.200  -0.8123   0.05736   0.05429  -0.0158  1.0000  0.0191  -4.5317   0.0000   0.0000   0.0000   0.2243
  -9.100  -0.8187   0.05472   0.05153  -0.0161  1.0000  0.0189  -4.6214   0.0000   0.0000   0.0000   0.2241
  -9.000  -0.8240   0.05211   0.04879  -0.0162  1.0000  0.0188  -4.7098   0.0000   0.0000   0.0000   0.2242
  -8.900  -0.8282   0.04955   0.04609  -0.0161  1.0000  0.0187  -4.7959   0.0000   0.0000   0.0000   0.2244
  -8.800  -0.8312   0.04705   0.04343  -0.0159  1.0000  0.0187  -4.8776   0.0000   0.0000   0.0000   0.2248
  -8.700  -0.8330   0.04469   0.04090  -0.0155  1.0000  0.0187  -4.9494   0.0000   0.0000   0.0000   0.2253
  -8.600  -0.8334   0.04246   0.03850  -0.0151  1.0000  0.0187  -5.0104   0.0000   0.0000   0.0000   0.2259
  -8.500  -0.8327   0.04037   0.03623  -0.0145  1.0000  0.0188  -5.0597   0.0000   0.0000   0.0000   0.2266
  -8.400  -0.8308   0.03842   0.03411  -0.0140  1.0000  0.0189  -5.0964   0.0000   0.0000   0.0000   0.2272
  -8.300  -0.8280   0.03662   0.03212  -0.0134  1.0000  0.0191  -5.1205   0.0000   0.0000   0.0000   0.2279
  -8.200  -0.8240   0.03505   0.03038  -0.0129  1.0000  0.0194  -5.1241   0.0000   0.0000   0.0000   0.2285
  -8.100  -0.8181   0.03398   0.02918  -0.0124  1.0000  0.0199  -5.0832   0.0000   0.0000   0.0000   0.2290
  -8.000  -0.8111   0.03317   0.02826  -0.0120  1.0000  0.0205  -5.0210   0.0000   0.0000   0.0000   0.2295
  -7.900  -0.8036   0.03246   0.02746  -0.0117  1.0000  0.0212  -4.9515   0.0000   0.0000   0.0000   0.2299
  -7.800  -0.7959   0.03177   0.02666  -0.0113  1.0000  0.0217  -4.8826   0.0000   0.0000   0.0000   0.2303
  -7.700  -0.7883   0.03102   0.02579  -0.0109  1.0000  0.0221  -4.8199   0.0000   0.0000   0.0000   0.2308
  -7.600  -0.7809   0.03013   0.02478  -0.0104  1.0000  0.0224  -4.7673   0.0000   0.0000   0.0000   0.2313
  -7.500  -0.7734   0.02923   0.02374  -0.0099  1.0000  0.0227  -4.7151   0.0000   0.0000   0.0000   0.2318
  -7.400  -0.7651   0.02860   0.02294  -0.0095  1.0000  0.0230  -4.6410   0.0000   0.0000   0.0000   0.2323
  -7.300  -0.7557   0.02840   0.02267  -0.0092  1.0000  0.0233  -4.5401   0.0000   0.0000   0.0000   0.2326
  -7.200  -0.7508   0.02643   0.02048  -0.0085  1.0000  0.0237  -4.5555   0.0000   0.0000   0.0000   0.2335
  -7.100  -0.7479   0.02331   0.01701  -0.0076  1.0000  0.0245  -4.6437   0.0000   0.0000   0.0000   0.2347
  -7.000  -0.7417   0.02147   0.01499  -0.0070  1.0000  0.0256  -4.6402   0.0000   0.0000   0.0000   0.2355
  -6.900  -0.7336   0.02053   0.01397  -0.0066  1.0000  0.0267  -4.5710   0.0000   0.0000   0.0000   0.2361
  -6.800  -0.7247   0.01998   0.01339  -0.0063  1.0000  0.0278  -4.4733   0.0000   0.0000   0.0000   0.2364
  -6.700  -0.7154   0.01958   0.01295  -0.0060  1.0000  0.0289  -4.3677   0.0000   0.0000   0.0000   0.2368
  -6.600  -0.7059   0.01921   0.01255  -0.0057  1.0000  0.0302  -4.2623   0.0000   0.0000   0.0000   0.2371
  -6.500  -0.6962   0.01899   0.01230  -0.0055  1.0000  0.0318  -4.1464   0.0000   0.0000   0.0000   0.2374
  -6.400  -0.6864   0.01880   0.01208  -0.0053  1.0000  0.0337  -4.0300   0.0000   0.0000   0.0000   0.2377
  -6.300  -0.6765   0.01858   0.01183  -0.0051  1.0000  0.0355  -3.9185   0.0000   0.0000   0.0000   0.2380
  -6.200  -0.6666   0.01836   0.01157  -0.0048  1.0000  0.0370  -3.8097   0.0000   0.0000   0.0000   0.2384
  -6.100  -0.6564   0.01820   0.01136  -0.0046  1.0000  0.0381  -3.6991   0.0000   0.0000   0.0000   0.2387
  -6.000  -0.6461   0.01816   0.01128  -0.0044  1.0000  0.0389  -3.5820   0.0000   0.0000   0.0000   0.2390
  -5.900  -0.6374   0.01724   0.01026  -0.0039  1.0000  0.0403  -3.5125   0.0000   0.0000   0.0000   0.2396
  -5.800  -0.6300   0.01597   0.00890  -0.0033  1.0000  0.0427  -3.4619   0.0000   0.0000   0.0000   0.2406
  -5.700  -0.6211   0.01543   0.00833  -0.0029  1.0000  0.0445  -3.3690   0.0000   0.0000   0.0000   0.2412
  -5.600  -0.6117   0.01511   0.00799  -0.0026  1.0000  0.0462  -3.2620   0.0000   0.0000   0.0000   0.2417
  -5.500  -0.6020   0.01490   0.00777  -0.0024  1.0000  0.0480  -3.1512   0.0000   0.0000   0.0000   0.2421
  -5.400  -0.5922   0.01471   0.00757  -0.0022  1.0000  0.0497  -3.0566   0.0000   0.0000   0.0000   0.2424
  -5.300  -0.5824   0.01450   0.00734  -0.0019  1.0000  0.0513  -2.9656   0.0000   0.0000   0.0000   0.2429
  -5.200  -0.5728   0.01426   0.00707  -0.0016  1.0000  0.0525  -2.8784   0.0000   0.0000   0.0000   0.2434
  -5.100  -0.5632   0.01399   0.00677  -0.0013  1.0000  0.0535  -2.7929   0.0000   0.0000   0.0000   0.2440
  -5.000  -0.5536   0.01371   0.00642  -0.0010  1.0000  0.0544  -2.7102   0.0000   0.0000   0.0000   0.2446
  -4.900  -0.5440   0.01349   0.00616  -0.0007  1.0000  0.0555  -2.6256   0.0000   0.0000   0.0000   0.2452
  -4.800  -0.5342   0.01330   0.00594  -0.0004  1.0000  0.0567  -2.5401   0.0000   0.0000   0.0000   0.2458
  -4.700  -0.5245   0.01311   0.00573  -0.0001  1.0000  0.0576  -2.4558   0.0000   0.0000   0.0000   0.2464
  -4.600  -0.5148   0.01292   0.00551   0.0002  1.0000  0.0584  -2.3735   0.0000   0.0000   0.0000   0.2471
  -4.500  -0.5060   0.01250   0.00505   0.0007  1.0000  0.0602  -2.3067   0.0000   0.0000   0.0000   0.2481
  -4.400  -0.4975   0.01201   0.00454   0.0012  1.0000  0.0648  -2.2453   0.0000   0.0000   0.0000   0.2492
  -4.300  -0.4882   0.01173   0.00429   0.0016  1.0000  0.0695  -2.1697   0.0000   0.0000   0.0000   0.2501
  -4.200  -0.4786   0.01153   0.00409   0.0019  1.0000  0.0742  -2.0908   0.0000   0.0000   0.0000   0.2509
  -4.100  -0.4688   0.01137   0.00390   0.0022  1.0000  0.0786  -2.0114   0.0000   0.0000   0.0000   0.2516
  -4.000  -0.4597   0.01106   0.00365   0.0026  1.0000  0.0897  -1.9401   0.0000   0.0000   0.0000   0.2526
  -3.900  -0.4506   0.01072   0.00343   0.0029  1.0000  0.1110  -1.8805   0.0000   0.0000   0.0000   0.2535
  -3.800  -0.4420   0.01033   0.00325   0.0032  1.0000  0.1506  -1.8207   0.0000   0.0000   0.0000   0.2544
  -3.700  -0.4332   0.00998   0.00310   0.0035  1.0000  0.1938  -1.7582   0.0000   0.0000   0.0000   0.2553
  -3.600  -0.4242   0.00968   0.00298   0.0038  1.0000  0.2333  -1.6943   0.0000   0.0000   0.0000   0.2561
  -3.500  -0.4151   0.00942   0.00288   0.0040  1.0000  0.2689  -1.6293   0.0000   0.0000   0.0000   0.2570
  -3.400  -0.4058   0.00919   0.00276   0.0043  1.0000  0.3034  -1.5633   0.0000   0.0000   0.0000   0.2579
  -3.300  -0.3965   0.00898   0.00268   0.0046  1.0000  0.3355  -1.4992   0.0000   0.0000   0.0000   0.2589
  -3.200  -0.3872   0.00878   0.00261   0.0048  1.0000  0.3673  -1.4562   0.0000   0.0000   0.0000   0.2599
  -3.100  -0.3778   0.00860   0.00254   0.0051  1.0000  0.3981  -1.4147   0.0000   0.0000   0.0000   0.2610
  -3.000  -0.3684   0.00843   0.00249   0.0054  1.0000  0.4275  -1.3732   0.0000   0.0000   0.0000   0.2621
  -2.900  -0.3590   0.00826   0.00243   0.0057  1.0000  0.4566  -1.3319   0.0000   0.0000   0.0000   0.2634
  -2.800  -0.3495   0.00810   0.00239   0.0060  1.0000  0.4857  -1.2907   0.0000   0.0000   0.0000   0.2647
  -2.600  -0.3310   0.00776   0.00232   0.0067  1.0000  0.5514  -1.2095   0.0000   0.0000   0.0000   0.2678
  -2.400  -0.3126   0.00744   0.00228   0.0075  1.0000  0.6196  -1.1295   0.0000   0.0000   0.0000   0.2718
  -2.300  -0.3033   0.00730   0.00227   0.0079  1.0000  0.6500  -1.0897   0.0000   0.0000   0.0000   0.2739
  -2.200  -0.2939   0.00719   0.00226   0.0083  1.0000  0.6778  -1.0500   0.0000   0.0000   0.0000   0.2762
  -2.100  -0.2844   0.00709   0.00224   0.0087  1.0000  0.7031  -1.0109   0.0000   0.0000   0.0000   0.2787
  -2.000  -0.2750   0.00699   0.00224   0.0092  1.0000  0.7278  -0.9718   0.0000   0.0000   0.0000   0.2814
  -1.900  -0.2658   0.00690   0.00225   0.0097  1.0000  0.7539  -0.9333   0.0000   0.0000   0.0000   0.2846
  -1.800  -0.2568   0.00682   0.00228   0.0103  1.0000  0.7807  -0.8953   0.0000   0.0000   0.0000   0.2883
  -1.700  -0.2478   0.00675   0.00231   0.0110  1.0000  0.8066  -0.8579   0.0000   0.0000   0.0000   0.2924
  -1.600  -0.2389   0.00671   0.00235   0.0117  1.0000  0.8310  -0.8209   0.0000   0.0000   0.0000   0.2970
  -1.500  -0.2300   0.00668   0.00239   0.0124  1.0000  0.8535  -0.7842   0.0000   0.0000   0.0000   0.3020
  -1.400  -0.2208   0.00668   0.00243   0.0130  1.0000  0.8734  -0.7474   0.0000   0.0000   0.0000   0.3072
  -1.300  -0.2114   0.00669   0.00248   0.0136  1.0000  0.8927  -0.7104   0.0000   0.0000   0.0000   0.3127
  -1.200  -0.2015   0.00671   0.00254   0.0141  1.0000  0.9119  -0.6730   0.0000   0.0000   0.0000   0.3184
  -1.100  -0.1897   0.00675   0.00259   0.0142  1.0000  0.9290  -0.6326   0.0000   0.0000   0.0000   0.3234
  -1.000  -0.1752   0.00680   0.00265   0.0137  1.0000  0.9429  -0.5880   0.0000   0.0000   0.0000   0.3267
  -0.800  -0.1434   0.00688   0.00270   0.0119  1.0000  0.9634  -0.5169   0.0000   0.0000   0.0000   0.3313
  -0.700  -0.1266   0.00692   0.00273   0.0107  1.0000  0.9723  -0.4817   0.0000   0.0000   0.0000   0.3332
  -0.600  -0.1080   0.00695   0.00275   0.0091  1.0000  0.9786  -0.4445   0.0000   0.0000   0.0000   0.3332
  -0.500  -0.0883   0.00697   0.00276   0.0073  1.0000  0.9838  -0.4066   0.0000   0.0000   0.0000   0.3316
  -0.400  -0.0687   0.00700   0.00278   0.0055  1.0000  0.9888  -0.3693   0.0000   0.0000   0.0000   0.3292
  -0.300  -0.0486   0.00702   0.00279   0.0036  1.0000  0.9925  -0.3417   0.0000   0.0000   0.0000   0.3228
  -0.200  -0.0278   0.00702   0.00280   0.0015  1.0000  0.9956  -0.3173   0.0000   0.0000   0.0000   0.3034
  -0.100  -0.0075   0.00703   0.00280  -0.0005  1.0000  0.9989  -0.2935   0.0000   0.0000   0.0000   0.1848
   0.000  -0.0000   0.00703   0.00273   0.0000  1.0000  1.0000  -0.2804   0.0000   0.0000   0.0000   0.4441
   0.100   0.0074   0.00703   0.00280   0.0005  0.9989  1.0000  -0.2935   0.0000   0.0000   0.0000   0.1847
   0.200   0.0278   0.00702   0.00280  -0.0015  0.9956  1.0000  -0.3173   0.0000   0.0000   0.0000   0.3034
   0.300   0.0486   0.00702   0.00279  -0.0036  0.9925  1.0000  -0.3417   0.0000   0.0000   0.0000   0.3228
   0.400   0.0687   0.00700   0.00278  -0.0055  0.9888  1.0000  -0.3693   0.0000   0.0000   0.0000   0.3292
   0.500   0.0883   0.00697   0.00276  -0.0073  0.9838  1.0000  -0.4066   0.0000   0.0000   0.0000   0.3316
   0.600   0.1079   0.00695   0.00275  -0.0091  0.9786  1.0000  -0.4445   0.0000   0.0000   0.0000   0.3332
   0.700   0.1266   0.00692   0.00273  -0.0107  0.9723  1.0000  -0.4817   0.0000   0.0000   0.0000   0.3332
   0.800   0.1434   0.00688   0.00270  -0.0119  0.9634  1.0000  -0.5169   0.0000   0.0000   0.0000   0.3313
   1.000   0.1752   0.00680   0.00264  -0.0137  0.9429  1.0000  -0.5879   0.0000   0.0000   0.0000   0.3267
   1.100   0.1897   0.00675   0.00259  -0.0142  0.9291  1.0000  -0.6325   0.0000   0.0000   0.0000   0.3234
   1.200   0.2015   0.00671   0.00253  -0.0141  0.9119  1.0000  -0.6729   0.0000   0.0000   0.0000   0.3184
   1.300   0.2113   0.00669   0.00248  -0.0136  0.8927  1.0000  -0.7103   0.0000   0.0000   0.0000   0.3127
   1.400   0.2208   0.00668   0.00243  -0.0130  0.8734  1.0000  -0.7473   0.0000   0.0000   0.0000   0.3072
   1.500   0.2299   0.00668   0.00239  -0.0124  0.8535  1.0000  -0.7841   0.0000   0.0000   0.0000   0.3020
   1.600   0.2388   0.00671   0.00235  -0.0117  0.8311  1.0000  -0.8208   0.0000   0.0000   0.0000   0.2970
   1.700   0.2477   0.00675   0.00231  -0.0110  0.8066  1.0000  -0.8578   0.0000   0.0000   0.0000   0.2924
   1.800   0.2567   0.00682   0.00228  -0.0103  0.7807  1.0000  -0.8953   0.0000   0.0000   0.0000   0.2883
   1.900   0.2658   0.00690   0.00225  -0.0097  0.7539  1.0000  -0.9332   0.0000   0.0000   0.0000   0.2846
   2.000   0.2750   0.00699   0.00224  -0.0092  0.7278  1.0000  -0.9717   0.0000   0.0000   0.0000   0.2814
   2.100   0.2844   0.00709   0.00224  -0.0087  0.7032  1.0000  -1.0108   0.0000   0.0000   0.0000   0.2786
   2.200   0.2939   0.00719   0.00226  -0.0083  0.6778  1.0000  -1.0499   0.0000   0.0000   0.0000   0.2762
   2.300   0.3033   0.00730   0.00227  -0.0079  0.6500  1.0000  -1.0896   0.0000   0.0000   0.0000   0.2739
   2.400   0.3126   0.00744   0.00228  -0.0075  0.6197  1.0000  -1.1294   0.0000   0.0000   0.0000   0.2717
   2.600   0.3309   0.00776   0.00232  -0.0067  0.5515  1.0000  -1.2094   0.0000   0.0000   0.0000   0.2678
   2.800   0.3495   0.00810   0.00239  -0.0060  0.4858  1.0000  -1.2906   0.0000   0.0000   0.0000   0.2647
   2.900   0.3589   0.00826   0.00243  -0.0057  0.4566  1.0000  -1.3318   0.0000   0.0000   0.0000   0.2633
   3.000   0.3683   0.00843   0.00248  -0.0054  0.4276  1.0000  -1.3731   0.0000   0.0000   0.0000   0.2621
   3.100   0.3777   0.00860   0.00254  -0.0051  0.3982  1.0000  -1.4146   0.0000   0.0000   0.0000   0.2609
   3.200   0.3872   0.00878   0.00261  -0.0048  0.3674  1.0000  -1.4561   0.0000   0.0000   0.0000   0.2599
   3.300   0.3965   0.00898   0.00268  -0.0046  0.3355  1.0000  -1.4990   0.0000   0.0000   0.0000   0.2588
   3.400   0.4058   0.00919   0.00276  -0.0043  0.3035  1.0000  -1.5631   0.0000   0.0000   0.0000   0.2579
   3.500   0.4150   0.00942   0.00288  -0.0040  0.2690  1.0000  -1.6291   0.0000   0.0000   0.0000   0.2570
   3.600   0.4242   0.00968   0.00298  -0.0038  0.2334  1.0000  -1.6941   0.0000   0.0000   0.0000   0.2561
   3.700   0.4331   0.00998   0.00310  -0.0035  0.1939  1.0000  -1.7580   0.0000   0.0000   0.0000   0.2552
   3.800   0.4419   0.01032   0.00324  -0.0032  0.1507  1.0000  -1.8206   0.0000   0.0000   0.0000   0.2544
   3.900   0.4506   0.01072   0.00343  -0.0029  0.1111  1.0000  -1.8804   0.0000   0.0000   0.0000   0.2535
   4.000   0.4596   0.01106   0.00365  -0.0026  0.0897  1.0000  -1.9399   0.0000   0.0000   0.0000   0.2526
   4.100   0.4688   0.01137   0.00390  -0.0022  0.0786  1.0000  -2.0112   0.0000   0.0000   0.0000   0.2516
   4.200   0.4786   0.01153   0.00409  -0.0019  0.0742  1.0000  -2.0906   0.0000   0.0000   0.0000   0.2508
   4.300   0.4882   0.01173   0.00429  -0.0016  0.0695  1.0000  -2.1695   0.0000   0.0000   0.0000   0.2501
   4.400   0.4975   0.01201   0.00454  -0.0012  0.0648  1.0000  -2.2451   0.0000   0.0000   0.0000   0.2492
   4.500   0.5060   0.01250   0.00505  -0.0007  0.0602  1.0000  -2.3066   0.0000   0.0000   0.0000   0.2481
   4.600   0.5147   0.01292   0.00551  -0.0002  0.0584  1.0000  -2.3733   0.0000   0.0000   0.0000   0.2470
   4.700   0.5245   0.01311   0.00573   0.0001  0.0577  1.0000  -2.4556   0.0000   0.0000   0.0000   0.2464
   4.800   0.5342   0.01330   0.00594   0.0004  0.0567  1.0000  -2.5400   0.0000   0.0000   0.0000   0.2458
   4.900   0.5439   0.01349   0.00616   0.0007  0.0555  1.0000  -2.6255   0.0000   0.0000   0.0000   0.2452
   5.000   0.5536   0.01371   0.00642   0.0010  0.0544  1.0000  -2.7100   0.0000   0.0000   0.0000   0.2446
   5.100   0.5631   0.01399   0.00677   0.0013  0.0535  1.0000  -2.7928   0.0000   0.0000   0.0000   0.2440
   5.200   0.5727   0.01426   0.00707   0.0016  0.0525  1.0000  -2.8783   0.0000   0.0000   0.0000   0.2434
   5.300   0.5824   0.01450   0.00734   0.0019  0.0513  1.0000  -2.9655   0.0000   0.0000   0.0000   0.2429
   5.400   0.5922   0.01471   0.00757   0.0022  0.0497  1.0000  -3.0565   0.0000   0.0000   0.0000   0.2424
   5.500   0.6020   0.01490   0.00777   0.0024  0.0480  1.0000  -3.1512   0.0000   0.0000   0.0000   0.2421
   5.600   0.6117   0.01511   0.00799   0.0026  0.0462  1.0000  -3.2620   0.0000   0.0000   0.0000   0.2417
   5.700   0.6211   0.01543   0.00833   0.0029  0.0445  1.0000  -3.3689   0.0000   0.0000   0.0000   0.2412
   5.800   0.6300   0.01597   0.00890   0.0033  0.0427  1.0000  -3.4619   0.0000   0.0000   0.0000   0.2406
   5.900   0.6374   0.01724   0.01026   0.0039  0.0403  1.0000  -3.5125   0.0000   0.0000   0.0000   0.2396
   6.000   0.6461   0.01816   0.01128   0.0044  0.0389  1.0000  -3.5820   0.0000   0.0000   0.0000   0.2390
   6.100   0.6564   0.01820   0.01136   0.0046  0.0381  1.0000  -3.6991   0.0000   0.0000   0.0000   0.2387
   6.200   0.6666   0.01836   0.01157   0.0048  0.0370  1.0000  -3.8097   0.0000   0.0000   0.0000   0.2384
   6.300   0.6765   0.01858   0.01183   0.0051  0.0355  1.0000  -3.9185   0.0000   0.0000   0.0000   0.2380
   6.400   0.6864   0.01880   0.01208   0.0053  0.0337  1.0000  -4.0300   0.0000   0.0000   0.0000   0.2377
   6.500   0.6963   0.01899   0.01230   0.0055  0.0318  1.0000  -4.1464   0.0000   0.0000   0.0000   0.2374
   6.600   0.7060   0.01921   0.01255   0.0057  0.0302  1.0000  -4.2623   0.0000   0.0000   0.0000   0.2371
   6.700   0.7154   0.01958   0.01295   0.0060  0.0289  1.0000  -4.3678   0.0000   0.0000   0.0000   0.2368
   6.800   0.7247   0.01998   0.01339   0.0063  0.0278  1.0000  -4.4734   0.0000   0.0000   0.0000   0.2364
   6.900   0.7336   0.02053   0.01397   0.0066  0.0267  1.0000  -4.5711   0.0000   0.0000   0.0000   0.2361
   7.000   0.7417   0.02147   0.01499   0.0070  0.0256  1.0000  -4.6403   0.0000   0.0000   0.0000   0.2355
   7.100   0.7479   0.02331   0.01701   0.0076  0.0245  1.0000  -4.6436   0.0000   0.0000   0.0000   0.2347
   7.200   0.7509   0.02644   0.02048   0.0085  0.0237  1.0000  -4.5552   0.0000   0.0000   0.0000   0.2335
   7.300   0.7558   0.02840   0.02267   0.0092  0.0233  1.0000  -4.5404   0.0000   0.0000   0.0000   0.2326
   7.400   0.7652   0.02860   0.02294   0.0095  0.0230  1.0000  -4.6413   0.0000   0.0000   0.0000   0.2323
   7.500   0.7735   0.02923   0.02375   0.0099  0.0227  1.0000  -4.7154   0.0000   0.0000   0.0000   0.2318
   7.600   0.7810   0.03013   0.02478   0.0104  0.0224  1.0000  -4.7674   0.0000   0.0000   0.0000   0.2313
   7.700   0.7883   0.03102   0.02579   0.0108  0.0221  1.0000  -4.8201   0.0000   0.0000   0.0000   0.2308
   7.800   0.7960   0.03177   0.02666   0.0113  0.0217  1.0000  -4.8830   0.0000   0.0000   0.0000   0.2303
   7.900   0.8037   0.03246   0.02746   0.0116  0.0212  1.0000  -4.9519   0.0000   0.0000   0.0000   0.2299
   8.000   0.8112   0.03317   0.02827   0.0120  0.0205  1.0000  -5.0214   0.0000   0.0000   0.0000   0.2295
   8.100   0.8182   0.03398   0.02919   0.0124  0.0199  1.0000  -5.0835   0.0000   0.0000   0.0000   0.2291
   8.200   0.8241   0.03505   0.03039   0.0129  0.0193  1.0000  -5.1243   0.0000   0.0000   0.0000   0.2286
   8.300   0.8281   0.03663   0.03213   0.0134  0.0191  1.0000  -5.1205   0.0000   0.0000   0.0000   0.2279
   8.400   0.8309   0.03843   0.03412   0.0140  0.0189  1.0000  -5.0963   0.0000   0.0000   0.0000   0.2273
   8.500   0.8328   0.04038   0.03624   0.0145  0.0188  1.0000  -5.0595   0.0000   0.0000   0.0000   0.2266
   8.600   0.8336   0.04248   0.03852   0.0150  0.0187  1.0000  -5.0100   0.0000   0.0000   0.0000   0.2260
   8.700   0.8331   0.04471   0.04092   0.0155  0.0187  1.0000  -4.9488   0.0000   0.0000   0.0000   0.2254
   8.800   0.8314   0.04708   0.04346   0.0158  0.0187  1.0000  -4.8768   0.0000   0.0000   0.0000   0.2249
   8.900   0.8284   0.04958   0.04612   0.0160  0.0187  1.0000  -4.7949   0.0000   0.0000   0.0000   0.2245
   9.000   0.8242   0.05215   0.04884   0.0161  0.0188  1.0000  -4.7086   0.0000   0.0000   0.0000   0.2243
   9.100   0.8189   0.05477   0.05158   0.0160  0.0189  1.0000  -4.6198   0.0000   0.0000   0.0000   0.2242
   9.200   0.8125   0.05742   0.05435   0.0157  0.0191  1.0000  -4.5298   0.0000   0.0000   0.0000   0.2245
   9.300   0.8052   0.06008   0.05711   0.0151  0.0192  1.0000  -4.4415   0.0000   0.0000   0.0000   0.2249
   9.400   0.7963   0.06251   0.05962   0.0146  0.0194  1.0000  -4.3611   0.0000   0.0000   0.0000   0.2253
   9.500   0.7868   0.06506   0.06223   0.0135  0.0195  1.0000  -4.2811   0.0000   0.0000   0.0000   0.2264
   9.600   0.7769   0.06812   0.06535   0.0111  0.0197  1.0000  -4.1897   0.0000   0.0000   0.0000   0.2292
   9.700   0.7666   0.07233   0.06962   0.0067  0.0200  1.0000  -4.0661   0.0000   0.0000   0.0000   0.2346
   9.800   0.7558   0.07933   0.07663  -0.0005  0.0205  1.0000  -3.8501   0.0000   0.0000   0.0000   0.2440
   9.900   0.7485   0.08387   0.08115  -0.0042  0.0208  1.0000  -3.7142   0.0000   0.0000   0.0000   0.2489
  10.000   0.7425   0.08759   0.08485  -0.0068  0.0210  1.0000  -3.6061   0.0000   0.0000   0.0000   0.2524
  10.100   0.7371   0.09096   0.08821  -0.0090  0.0213  1.0000  -3.5104   0.0000   0.0000   0.0000   0.2554
  10.200   0.7322   0.09410   0.09128  -0.0108  0.0215  1.0000  -3.4228   0.0000   0.0000   0.0000   0.2580
  10.300   0.7274   0.09711   0.09427  -0.0125  0.0217  1.0000  -3.3400   0.0000   0.0000   0.0000   0.2603
  10.400   0.7227   0.10007   0.09721  -0.0140  0.0220  1.0000  -3.2585   0.0000   0.0000   0.0000   0.2624
  10.500   0.7172   0.10313   0.10026  -0.0154  0.0223  1.0000  -3.1695   0.0000   0.0000   0.0000   0.2645
  10.800   0.3065   0.03308   0.03072   0.0294  0.0324  1.0000  -2.0022   0.0000   0.0000   0.0000   0.1533
  10.900   0.3021   0.03503   0.03265   0.0280  0.0328  1.0000  -1.9134   0.0000   0.0000   0.0000   0.1567
  11.000   0.2988   0.03681   0.03442   0.0268  0.0331  1.0000  -1.8402   0.0000   0.0000   0.0000   0.1599
  11.100   0.2962   0.03849   0.03609   0.0257  0.0334  1.0000  -1.7770   0.0000   0.0000   0.0000   0.1629
  11.200   0.2943   0.04011   0.03770   0.0247  0.0337  1.0000  -1.7211   0.0000   0.0000   0.0000   0.1659
  11.300   0.2929   0.04167   0.03926   0.0238  0.0341  1.0000  -1.6709   0.0000   0.0000   0.0000   0.1689
  11.400   0.2919   0.04320   0.04078   0.0229  0.0344  1.0000  -1.6254   0.0000   0.0000   0.0000   0.1717
  11.500   0.2913   0.04471   0.04228   0.0221  0.0349  1.0000  -1.5838   0.0000   0.0000   0.0000   0.1745
  11.600   0.2909   0.04620   0.04376   0.0213  0.0354  1.0000  -1.5458   0.0000   0.0000   0.0000   0.1771
  11.700   0.2909   0.04772   0.04528   0.0205  0.0360  1.0000  -1.5110   0.0000   0.0000   0.0000   0.1797
  12.000   0.7166   0.13405   0.13117  -0.0277  0.0252  1.0000  -2.6047   0.0000   0.0000   0.0000   0.2808
  12.100   0.7167   0.13587   0.13299  -0.0283  0.0251  1.0000  -2.5911   0.0000   0.0000   0.0000   0.2815
  12.200   0.7168   0.13774   0.13485  -0.0289  0.0249  1.0000  -2.5763   0.0000   0.0000   0.0000   0.2822
  12.300   0.7167   0.13967   0.13678  -0.0295  0.0247  1.0000  -2.5588   0.0000   0.0000   0.0000   0.2830
  12.400   0.7162   0.14172   0.13883  -0.0301  0.0245  1.0000  -2.5358   0.0000   0.0000   0.0000   0.2838
  12.500   0.7151   0.14403   0.14113  -0.0307  0.0243  1.0000  -2.5035   0.0000   0.0000   0.0000   0.2847
  12.600   0.7119   0.14700   0.14409  -0.0316  0.0239  1.0000  -2.4444   0.0000   0.0000   0.0000   0.2860
  12.700   0.7010   0.15276   0.14974  -0.0331  0.0234  1.0000  -2.2439   0.0000   0.0000   0.0000   0.2890
  12.800   0.7021   0.15468   0.15166  -0.0339  0.0234  1.0000  -2.2320   0.0000   0.0000   0.0000   0.2899
  12.900   0.7033   0.15658   0.15356  -0.0346  0.0234  1.0000  -2.2208   0.0000   0.0000   0.0000   0.2908
  13.000   0.7045   0.15848   0.15550  -0.0353  0.0234  1.0000  -2.2072   0.0000   0.0000   0.0000   0.2916
  13.100   0.7058   0.16035   0.15737  -0.0360  0.0234  1.0000  -2.1955   0.0000   0.0000   0.0000   0.2924
  13.200   0.7071   0.16220   0.15922  -0.0367  0.0234  1.0000  -2.1855   0.0000   0.0000   0.0000   0.2933
  13.300   0.7084   0.16404   0.16106  -0.0374  0.0233  1.0000  -2.1763   0.0000   0.0000   0.0000   0.2941
  13.400   0.7099   0.16588   0.16289  -0.0381  0.0233  1.0000  -2.1678   0.0000   0.0000   0.0000   0.2949
  13.500   0.7114   0.16770   0.16471  -0.0388  0.0233  1.0000  -2.1599   0.0000   0.0000   0.0000   0.2957
  13.600   0.7130   0.16952   0.16653  -0.0395  0.0233  1.0000  -2.1526   0.0000   0.0000   0.0000   0.2964
  13.700   0.7146   0.17133   0.16834  -0.0402  0.0233  1.0000  -2.1457   0.0000   0.0000   0.0000   0.2972
  13.800   0.7163   0.17314   0.17014  -0.0409  0.0233  1.0000  -2.1392   0.0000   0.0000   0.0000   0.2980
  13.900   0.7181   0.17493   0.17193  -0.0416  0.0233  1.0000  -2.1332   0.0000   0.0000   0.0000   0.2987
  14.000   0.7199   0.17672   0.17371  -0.0423  0.0233  1.0000  -2.1275   0.0000   0.0000   0.0000   0.2995
  14.100   0.7217   0.17850   0.17549  -0.0430  0.0233  1.0000  -2.1222   0.0000   0.0000   0.0000   0.3002
  14.200   0.7236   0.18027   0.17726  -0.0437  0.0233  1.0000  -2.1172   0.0000   0.0000   0.0000   0.3010
  14.300   0.7256   0.18203   0.17902  -0.0444  0.0233  1.0000  -2.1124   0.0000   0.0000   0.0000   0.3017
  14.400   0.7276   0.18378   0.18077  -0.0451  0.0233  1.0000  -2.1078   0.0000   0.0000   0.0000   0.3024
  14.500   0.7296   0.18552   0.18251  -0.0458  0.0233  1.0000  -2.1035   0.0000   0.0000   0.0000   0.3031
  14.600   0.7317   0.18725   0.18424  -0.0465  0.0232  1.0000  -2.0993   0.0000   0.0000   0.0000   0.3039
  14.700   0.7338   0.18897   0.18596  -0.0473  0.0232  1.0000  -2.0952   0.0000   0.0000   0.0000   0.3046
  14.800   0.7359   0.19068   0.18767  -0.0480  0.0232  1.0000  -2.0912   0.0000   0.0000   0.0000   0.3053
  14.900   0.7381   0.19239   0.18936  -0.0487  0.0232  1.0000  -2.0873   0.0000   0.0000   0.0000   0.3060
  15.000   0.7403   0.19407   0.19105  -0.0494  0.0232  1.0000  -2.0834   0.0000   0.0000   0.0000   0.3067


