xflr5 v6.61

 Calculated polar for: NACA 0008

 1 1 Reynolds number fixed          Mach number fixed         

 xtrf =   1.000 (top)        1.000 (bottom)
 Mach =   0.000     Re =     0.450 e 6     Ncrit =   9.000

  alpha     CL        CD       CDp       Cm    Top Xtr Bot Xtr   Cpmin    Chinge    XCp    
 ------- -------- --------- --------- -------- ------- ------- -------- --------- ---------
 -13.000  -0.3279   0.06669   0.06463  -0.0108  1.0000  0.0210  -1.5634   0.0000   0.0000   0.0000   0.2159
 -12.900  -0.3265   0.06529   0.06323  -0.0115  1.0000  0.0212  -1.5892   0.0000   0.0000   0.0000   0.2136
 -12.800  -0.3250   0.06396   0.06190  -0.0122  1.0000  0.0215  -1.6115   0.0000   0.0000   0.0000   0.2113
 -12.700  -0.3234   0.06267   0.06062  -0.0129  1.0000  0.0218  -1.6308   0.0000   0.0000   0.0000   0.2091
 -12.600  -0.3219   0.06138   0.05933  -0.0136  1.0000  0.0221  -1.6497   0.0000   0.0000   0.0000   0.2067
 -12.500  -0.3208   0.05996   0.05791  -0.0143  1.0000  0.0222  -1.6758   0.0000   0.0000   0.0000   0.2043
 -12.400  -0.3204   0.05836   0.05631  -0.0151  1.0000  0.0221  -1.7144   0.0000   0.0000   0.0000   0.2018
 -12.300  -0.3205   0.05665   0.05461  -0.0159  1.0000  0.0219  -1.7613   0.0000   0.0000   0.0000   0.1991
 -12.200  -0.3209   0.05490   0.05287  -0.0168  1.0000  0.0217  -1.8137   0.0000   0.0000   0.0000   0.1963
 -12.100  -0.3217   0.05311   0.05109  -0.0178  1.0000  0.0216  -1.8714   0.0000   0.0000   0.0000   0.1934
 -12.000  -0.3228   0.05129   0.04927  -0.0188  1.0000  0.0214  -1.9338   0.0000   0.0000   0.0000   0.1905
 -11.900  -0.3242   0.04943   0.04742  -0.0198  1.0000  0.0212  -2.0015   0.0000   0.0000   0.0000   0.1874
 -11.800  -0.3262   0.04751   0.04550  -0.0209  1.0000  0.0211  -2.0764   0.0000   0.0000   0.0000   0.1843
 -11.700  -0.3288   0.04549   0.04349  -0.0221  1.0000  0.0210  -2.1607   0.0000   0.0000   0.0000   0.1810
 -11.600  -0.3323   0.04335   0.04136  -0.0235  1.0000  0.0209  -2.2575   0.0000   0.0000   0.0000   0.1775
 -11.500  -0.3369   0.04100   0.03903  -0.0250  1.0000  0.0208  -2.3731   0.0000   0.0000   0.0000   0.1738
 -11.400  -0.3434   0.03830   0.03633  -0.0268  1.0000  0.0206  -2.5216   0.0000   0.0000   0.0000   0.1697
 -11.300  -0.3555   0.03437   0.03242  -0.0296  1.0000  0.0201  -2.7782   0.0000   0.0000   0.0000   0.1641
 -11.200  -0.4379   0.02005   0.01794  -0.0442  1.0000  0.0155  -4.1115   0.0000   0.0000   0.0000   0.1445
 -11.100  -0.4537   0.01764   0.01545  -0.0469  1.0000  0.0151  -4.2982   0.0000   0.0000   0.0000   0.1418
 -11.000  -0.4672   0.01572   0.01345  -0.0490  1.0000  0.0148  -4.4436   0.0000   0.0000   0.0000   0.1402
 -10.900  -0.4786   0.01418   0.01184  -0.0506  1.0000  0.0146  -4.5532   0.0000   0.0000   0.0000   0.1393
 -10.800  -0.4886   0.01287   0.01046  -0.0519  1.0000  0.0145  -4.6394   0.0000   0.0000   0.0000   0.1389
 -10.700  -0.4977   0.01175   0.00927  -0.0529  1.0000  0.0144  -4.7088   0.0000   0.0000   0.0000   0.1389
 -10.600  -0.5061   0.01075   0.00821  -0.0536  1.0000  0.0144  -4.7660   0.0000   0.0000   0.0000   0.1391
 -10.500  -0.5141   0.00985   0.00725  -0.0542  1.0000  0.0143  -4.8145   0.0000   0.0000   0.0000   0.1397
 -10.400  -0.5218   0.00903   0.00638  -0.0546  1.0000  0.0143  -4.8564   0.0000   0.0000   0.0000   0.1406
 -10.300  -0.5293   0.00829   0.00557  -0.0548  1.0000  0.0143  -4.8930   0.0000   0.0000   0.0000   0.1416
 -10.200  -0.5367   0.00761   0.00483  -0.0549  1.0000  0.0142  -4.9253   0.0000   0.0000   0.0000   0.1430
  -9.800  -0.8296   0.05625   0.05369  -0.0160  1.0000  0.0117  -5.3486   0.0000   0.0000   0.0000   0.2235
  -9.700  -0.8424   0.05373   0.05108  -0.0164  1.0000  0.0117  -5.4587   0.0000   0.0000   0.0000   0.2234
  -9.600  -0.8527   0.05136   0.04860  -0.0163  1.0000  0.0116  -5.5566   0.0000   0.0000   0.0000   0.2238
  -9.500  -0.8603   0.04892   0.04604  -0.0163  1.0000  0.0116  -5.6491   0.0000   0.0000   0.0000   0.2241
  -9.400  -0.8658   0.04664   0.04362  -0.0161  1.0000  0.0116  -5.7267   0.0000   0.0000   0.0000   0.2245
  -9.300  -0.8691   0.04457   0.04141  -0.0158  1.0000  0.0116  -5.7854   0.0000   0.0000   0.0000   0.2249
  -9.200  -0.8703   0.04275   0.03946  -0.0155  1.0000  0.0117  -5.8208   0.0000   0.0000   0.0000   0.2255
  -9.100  -0.8692   0.04124   0.03782  -0.0151  1.0000  0.0117  -5.8279   0.0000   0.0000   0.0000   0.2260
  -9.000  -0.8658   0.04012   0.03659  -0.0147  1.0000  0.0118  -5.7994   0.0000   0.0000   0.0000   0.2264
  -8.900  -0.8590   0.03968   0.03608  -0.0144  1.0000  0.0120  -5.7094   0.0000   0.0000   0.0000   0.2267
  -8.800  -0.8559   0.03845   0.03473  -0.0140  1.0000  0.0121  -5.6883   0.0000   0.0000   0.0000   0.2272
  -8.700  -0.8605   0.03535   0.03136  -0.0132  1.0000  0.0122  -5.8300   0.0000   0.0000   0.0000   0.2282
  -8.600  -0.8642   0.03217   0.02788  -0.0122  1.0000  0.0123  -5.9773   0.0000   0.0000   0.0000   0.2294
  -8.500  -0.8661   0.02916   0.02455  -0.0112  1.0000  0.0125  -6.1086   0.0000   0.0000   0.0000   0.2306
  -8.400  -0.8654   0.02659   0.02169  -0.0103  1.0000  0.0127  -6.1981   0.0000   0.0000   0.0000   0.2317
  -8.300  -0.8621   0.02457   0.01944  -0.0095  1.0000  0.0131  -6.2362   0.0000   0.0000   0.0000   0.2327
  -8.200  -0.8569   0.02306   0.01775  -0.0088  1.0000  0.0134  -6.2271   0.0000   0.0000   0.0000   0.2334
  -8.100  -0.8502   0.02194   0.01650  -0.0083  1.0000  0.0138  -6.1799   0.0000   0.0000   0.0000   0.2341
  -8.000  -0.8425   0.02113   0.01559  -0.0079  1.0000  0.0142  -6.1033   0.0000   0.0000   0.0000   0.2346
  -7.900  -0.8340   0.02055   0.01496  -0.0075  1.0000  0.0146  -6.0029   0.0000   0.0000   0.0000   0.2350
  -7.800  -0.8247   0.02029   0.01467  -0.0073  1.0000  0.0152  -5.8686   0.0000   0.0000   0.0000   0.2352
  -7.700  -0.8149   0.02019   0.01457  -0.0072  1.0000  0.0157  -5.7198   0.0000   0.0000   0.0000   0.2354
  -7.600  -0.8051   0.02009   0.01446  -0.0071  1.0000  0.0164  -5.5738   0.0000   0.0000   0.0000   0.2355
  -7.500  -0.7954   0.01991   0.01426  -0.0069  1.0000  0.0171  -5.4395   0.0000   0.0000   0.0000   0.2357
  -7.400  -0.7859   0.01961   0.01393  -0.0067  1.0000  0.0178  -5.3205   0.0000   0.0000   0.0000   0.2360
  -7.300  -0.7765   0.01920   0.01346  -0.0064  1.0000  0.0185  -5.2159   0.0000   0.0000   0.0000   0.2364
  -7.200  -0.7673   0.01871   0.01290  -0.0060  1.0000  0.0193  -5.1206   0.0000   0.0000   0.0000   0.2368
  -7.100  -0.7580   0.01823   0.01230  -0.0057  1.0000  0.0200  -5.0214   0.0000   0.0000   0.0000   0.2373
  -7.000  -0.7485   0.01783   0.01185  -0.0054  1.0000  0.0208  -4.9181   0.0000   0.0000   0.0000   0.2376
  -6.900  -0.7389   0.01751   0.01148  -0.0051  1.0000  0.0215  -4.8070   0.0000   0.0000   0.0000   0.2380
  -6.800  -0.7289   0.01729   0.01122  -0.0049  1.0000  0.0221  -4.6873   0.0000   0.0000   0.0000   0.2383
  -6.700  -0.7187   0.01716   0.01106  -0.0047  1.0000  0.0226  -4.5595   0.0000   0.0000   0.0000   0.2385
  -6.600  -0.7083   0.01713   0.01101  -0.0046  1.0000  0.0230  -4.4252   0.0000   0.0000   0.0000   0.2387
  -6.500  -0.6976   0.01719   0.01106  -0.0045  1.0000  0.0233  -4.2857   0.0000   0.0000   0.0000   0.2389
  -6.400  -0.6941   0.01488   0.00854  -0.0033  1.0000  0.0263  -4.3267   0.0000   0.0000   0.0000   0.2406
  -6.300  -0.6852   0.01443   0.00809  -0.0029  1.0000  0.0283  -4.2210   0.0000   0.0000   0.0000   0.2412
  -6.200  -0.6751   0.01432   0.00798  -0.0028  1.0000  0.0301  -4.0871   0.0000   0.0000   0.0000   0.2414
  -6.100  -0.6650   0.01424   0.00791  -0.0026  1.0000  0.0319  -3.9541   0.0000   0.0000   0.0000   0.2416
  -6.000  -0.6548   0.01413   0.00779  -0.0025  1.0000  0.0336  -3.8265   0.0000   0.0000   0.0000   0.2419
  -5.900  -0.6447   0.01401   0.00765  -0.0023  1.0000  0.0352  -3.7030   0.0000   0.0000   0.0000   0.2422
  -5.800  -0.6346   0.01388   0.00750  -0.0021  1.0000  0.0364  -3.5809   0.0000   0.0000   0.0000   0.2425
  -5.700  -0.6245   0.01376   0.00735  -0.0019  1.0000  0.0374  -3.4600   0.0000   0.0000   0.0000   0.2428
  -5.600  -0.6143   0.01365   0.00722  -0.0017  1.0000  0.0380  -3.3391   0.0000   0.0000   0.0000   0.2432
  -5.500  -0.6041   0.01355   0.00711  -0.0015  1.0000  0.0385  -3.2189   0.0000   0.0000   0.0000   0.2435
  -5.400  -0.5940   0.01347   0.00700  -0.0013  1.0000  0.0389  -3.1123   0.0000   0.0000   0.0000   0.2439
  -5.300  -0.5838   0.01338   0.00690  -0.0011  1.0000  0.0391  -3.0130   0.0000   0.0000   0.0000   0.2442
  -5.200  -0.5748   0.01297   0.00645  -0.0007  1.0000  0.0399  -2.9337   0.0000   0.0000   0.0000   0.2450
  -5.100  -0.5667   0.01239   0.00580  -0.0002  1.0000  0.0413  -2.8663   0.0000   0.0000   0.0000   0.2460
  -5.000  -0.5579   0.01200   0.00532   0.0002  1.0000  0.0428  -2.7877   0.0000   0.0000   0.0000   0.2468
  -4.900  -0.5487   0.01170   0.00499   0.0006  1.0000  0.0443  -2.7068   0.0000   0.0000   0.0000   0.2476
  -4.800  -0.5393   0.01144   0.00471   0.0010  1.0000  0.0456  -2.6241   0.0000   0.0000   0.0000   0.2483
  -4.700  -0.5298   0.01123   0.00448   0.0013  1.0000  0.0470  -2.5399   0.0000   0.0000   0.0000   0.2490
  -4.600  -0.5202   0.01103   0.00428   0.0016  1.0000  0.0487  -2.4545   0.0000   0.0000   0.0000   0.2497
  -4.500  -0.5106   0.01085   0.00409   0.0019  1.0000  0.0504  -2.3696   0.0000   0.0000   0.0000   0.2505
  -4.400  -0.5009   0.01068   0.00390   0.0022  1.0000  0.0522  -2.2866   0.0000   0.0000   0.0000   0.2512
  -4.300  -0.4912   0.01051   0.00371   0.0025  1.0000  0.0543  -2.2046   0.0000   0.0000   0.0000   0.2520
  -4.200  -0.4814   0.01037   0.00355   0.0028  1.0000  0.0566  -2.1223   0.0000   0.0000   0.0000   0.2527
  -4.100  -0.4715   0.01026   0.00342   0.0031  1.0000  0.0583  -2.0385   0.0000   0.0000   0.0000   0.2535
  -4.000  -0.4621   0.01000   0.00316   0.0035  1.0000  0.0655  -1.9661   0.0000   0.0000   0.0000   0.2545
  -3.900  -0.4525   0.00979   0.00301   0.0038  1.0000  0.0742  -1.8952   0.0000   0.0000   0.0000   0.2554
  -3.800  -0.4430   0.00959   0.00287   0.0041  1.0000  0.0880  -1.8312   0.0000   0.0000   0.0000   0.2562
  -3.700  -0.4338   0.00931   0.00273   0.0043  1.0000  0.1140  -1.7677   0.0000   0.0000   0.0000   0.2571
  -3.600  -0.4246   0.00905   0.00261   0.0046  1.0000  0.1452  -1.7030   0.0000   0.0000   0.0000   0.2580
  -3.500  -0.4153   0.00880   0.00250   0.0048  1.0000  0.1763  -1.6376   0.0000   0.0000   0.0000   0.2589
  -3.400  -0.4059   0.00858   0.00239   0.0051  1.0000  0.2065  -1.5707   0.0000   0.0000   0.0000   0.2598
  -3.300  -0.3964   0.00839   0.00231   0.0053  1.0000  0.2352  -1.5062   0.0000   0.0000   0.0000   0.2607
  -3.200  -0.3868   0.00820   0.00224   0.0055  1.0000  0.2632  -1.4642   0.0000   0.0000   0.0000   0.2616
  -3.100  -0.3772   0.00802   0.00217   0.0057  1.0000  0.2916  -1.4221   0.0000   0.0000   0.0000   0.2626
  -3.000  -0.3676   0.00785   0.00211   0.0059  1.0000  0.3197  -1.3800   0.0000   0.0000   0.0000   0.2636
  -2.900  -0.3579   0.00769   0.00206   0.0061  1.0000  0.3474  -1.3380   0.0000   0.0000   0.0000   0.2646
  -2.800  -0.3481   0.00754   0.00201   0.0063  1.0000  0.3746  -1.2960   0.0000   0.0000   0.0000   0.2657
  -2.600  -0.3285   0.00726   0.00193   0.0067  1.0000  0.4276  -1.2125   0.0000   0.0000   0.0000   0.2681
  -2.500  -0.3187   0.00712   0.00190   0.0069  1.0000  0.4539  -1.1711   0.0000   0.0000   0.0000   0.2694
  -2.400  -0.3088   0.00698   0.00187   0.0071  1.0000  0.4820  -1.1300   0.0000   0.0000   0.0000   0.2708
  -2.300  -0.2990   0.00686   0.00185   0.0073  1.0000  0.5092  -1.0890   0.0000   0.0000   0.0000   0.2722
  -2.200  -0.2890   0.00674   0.00183   0.0075  1.0000  0.5359  -1.0484   0.0000   0.0000   0.0000   0.2738
  -2.100  -0.2791   0.00661   0.00180   0.0077  1.0000  0.5651  -1.0085   0.0000   0.0000   0.0000   0.2755
  -2.000  -0.2693   0.00647   0.00179   0.0079  1.0000  0.5958  -0.9686   0.0000   0.0000   0.0000   0.2774
  -1.900  -0.2594   0.00635   0.00179   0.0082  1.0000  0.6268  -0.9290   0.0000   0.0000   0.0000   0.2794
  -1.800  -0.2495   0.00624   0.00179   0.0084  1.0000  0.6561  -0.8896   0.0000   0.0000   0.0000   0.2817
  -1.700  -0.2396   0.00613   0.00180   0.0086  1.0000  0.6831  -0.8505   0.0000   0.0000   0.0000   0.2842
  -1.600  -0.2297   0.00602   0.00181   0.0089  1.0000  0.7116  -0.8118   0.0000   0.0000   0.0000   0.2870
  -1.500  -0.2198   0.00593   0.00184   0.0092  1.0000  0.7408  -0.7735   0.0000   0.0000   0.0000   0.2902
  -1.400  -0.2099   0.00585   0.00186   0.0096  1.0000  0.7686  -0.7356   0.0000   0.0000   0.0000   0.2938
  -1.300  -0.1993   0.00578   0.00189   0.0098  0.9997  0.7942  -0.6967   0.0000   0.0000   0.0000   0.2972
  -1.200  -0.1845   0.00571   0.00190   0.0090  0.9973  0.8161  -0.6507   0.0000   0.0000   0.0000   0.2973
  -1.100  -0.1695   0.00566   0.00192   0.0083  0.9950  0.8361  -0.6049   0.0000   0.0000   0.0000   0.2975
  -1.000  -0.1546   0.00562   0.00195   0.0077  0.9928  0.8579  -0.5612   0.0000   0.0000   0.0000   0.2981
  -0.900  -0.1395   0.00559   0.00198   0.0070  0.9910  0.8784  -0.5278   0.0000   0.0000   0.0000   0.2988
  -0.800  -0.1264   0.00557   0.00200   0.0068  0.9879  0.8953  -0.4968   0.0000   0.0000   0.0000   0.3023
  -0.700  -0.1122   0.00556   0.00202   0.0063  0.9847  0.9103  -0.4650   0.0000   0.0000   0.0000   0.3047
  -0.600  -0.0966   0.00556   0.00204   0.0056  0.9822  0.9206  -0.4318   0.0000   0.0000   0.0000   0.3059
  -0.500  -0.0806   0.00557   0.00205   0.0046  0.9797  0.9306  -0.3984   0.0000   0.0000   0.0000   0.3059
  -0.400  -0.0634   0.00557   0.00207   0.0035  0.9777  0.9380  -0.3640   0.0000   0.0000   0.0000   0.3032
  -0.300  -0.0459   0.00558   0.00208   0.0022  0.9756  0.9446  -0.3414   0.0000   0.0000   0.0000   0.2971
  -0.200  -0.0325   0.00558   0.00208   0.0019  0.9708  0.9522  -0.3228   0.0000   0.0000   0.0000   0.3074
  -0.100  -0.0174   0.00558   0.00208   0.0012  0.9660  0.9578  -0.3029   0.0000   0.0000   0.0000   0.3182
   0.000  -0.0000   0.00558   0.00208   0.0000  0.9619  0.9619  -0.2814   0.0000   0.0000   0.0000   0.2923
   0.100   0.0174   0.00558   0.00208  -0.0012  0.9578  0.9660  -0.3029   0.0000   0.0000   0.0000   0.3182
   0.200   0.0325   0.00558   0.00208  -0.0019  0.9522  0.9708  -0.3228   0.0000   0.0000   0.0000   0.3074
   0.300   0.0459   0.00558   0.00208  -0.0022  0.9446  0.9756  -0.3414   0.0000   0.0000   0.0000   0.2971
   0.400   0.0634   0.00557   0.00207  -0.0035  0.9380  0.9777  -0.3640   0.0000   0.0000   0.0000   0.3032
   0.500   0.0806   0.00557   0.00205  -0.0046  0.9306  0.9797  -0.3984   0.0000   0.0000   0.0000   0.3059
   0.600   0.0966   0.00556   0.00204  -0.0056  0.9206  0.9822  -0.4318   0.0000   0.0000   0.0000   0.3059
   0.700   0.1122   0.00556   0.00202  -0.0063  0.9103  0.9847  -0.4650   0.0000   0.0000   0.0000   0.3047
   0.800   0.1264   0.00557   0.00200  -0.0068  0.8953  0.9879  -0.4968   0.0000   0.0000   0.0000   0.3023
   0.900   0.1395   0.00559   0.00198  -0.0070  0.8784  0.9910  -0.5278   0.0000   0.0000   0.0000   0.2987
   1.000   0.1546   0.00562   0.00195  -0.0077  0.8579  0.9928  -0.5612   0.0000   0.0000   0.0000   0.2981
   1.100   0.1695   0.00566   0.00192  -0.0083  0.8361  0.9950  -0.6049   0.0000   0.0000   0.0000   0.2975
   1.200   0.1845   0.00571   0.00190  -0.0090  0.8161  0.9974  -0.6507   0.0000   0.0000   0.0000   0.2973
   1.300   0.1993   0.00578   0.00189  -0.0098  0.7942  0.9997  -0.6967   0.0000   0.0000   0.0000   0.2972
   1.400   0.2099   0.00585   0.00186  -0.0096  0.7686  1.0000  -0.7356   0.0000   0.0000   0.0000   0.2938
   1.500   0.2197   0.00593   0.00183  -0.0092  0.7409  1.0000  -0.7735   0.0000   0.0000   0.0000   0.2901
   1.600   0.2296   0.00602   0.00181  -0.0089  0.7117  1.0000  -0.8118   0.0000   0.0000   0.0000   0.2870
   1.700   0.2395   0.00613   0.00180  -0.0086  0.6832  1.0000  -0.8505   0.0000   0.0000   0.0000   0.2841
   1.800   0.2494   0.00624   0.00179  -0.0084  0.6561  1.0000  -0.8895   0.0000   0.0000   0.0000   0.2816
   1.900   0.2594   0.00635   0.00179  -0.0081  0.6269  1.0000  -0.9289   0.0000   0.0000   0.0000   0.2794
   2.000   0.2693   0.00647   0.00179  -0.0079  0.5959  1.0000  -0.9685   0.0000   0.0000   0.0000   0.2773
   2.100   0.2791   0.00661   0.00179  -0.0077  0.5652  1.0000  -1.0084   0.0000   0.0000   0.0000   0.2754
   2.200   0.2890   0.00674   0.00183  -0.0075  0.5359  1.0000  -1.0483   0.0000   0.0000   0.0000   0.2737
   2.300   0.2989   0.00686   0.00185  -0.0073  0.5092  1.0000  -1.0889   0.0000   0.0000   0.0000   0.2722
   2.400   0.3088   0.00698   0.00187  -0.0071  0.4821  1.0000  -1.1299   0.0000   0.0000   0.0000   0.2707
   2.500   0.3186   0.00712   0.00190  -0.0069  0.4540  1.0000  -1.1710   0.0000   0.0000   0.0000   0.2693
   2.600   0.3285   0.00726   0.00193  -0.0067  0.4277  1.0000  -1.2124   0.0000   0.0000   0.0000   0.2681
   2.800   0.3481   0.00754   0.00201  -0.0063  0.3747  1.0000  -1.2959   0.0000   0.0000   0.0000   0.2657
   2.900   0.3578   0.00769   0.00206  -0.0061  0.3475  1.0000  -1.3379   0.0000   0.0000   0.0000   0.2646
   3.000   0.3675   0.00785   0.00211  -0.0059  0.3197  1.0000  -1.3799   0.0000   0.0000   0.0000   0.2636
   3.100   0.3772   0.00802   0.00217  -0.0057  0.2916  1.0000  -1.4220   0.0000   0.0000   0.0000   0.2625
   3.200   0.3867   0.00820   0.00224  -0.0055  0.2633  1.0000  -1.4640   0.0000   0.0000   0.0000   0.2616
   3.300   0.3963   0.00839   0.00231  -0.0053  0.2353  1.0000  -1.5061   0.0000   0.0000   0.0000   0.2606
   3.400   0.4058   0.00858   0.00239  -0.0050  0.2066  1.0000  -1.5705   0.0000   0.0000   0.0000   0.2597
   3.500   0.4152   0.00880   0.00250  -0.0048  0.1764  1.0000  -1.6374   0.0000   0.0000   0.0000   0.2589
   3.600   0.4245   0.00905   0.00261  -0.0046  0.1453  1.0000  -1.7028   0.0000   0.0000   0.0000   0.2580
   3.700   0.4337   0.00931   0.00273  -0.0043  0.1141  1.0000  -1.7675   0.0000   0.0000   0.0000   0.2571
   3.800   0.4429   0.00959   0.00287  -0.0040  0.0881  1.0000  -1.8311   0.0000   0.0000   0.0000   0.2562
   3.900   0.4525   0.00979   0.00301  -0.0038  0.0742  1.0000  -1.8950   0.0000   0.0000   0.0000   0.2553
   4.000   0.4620   0.01000   0.00316  -0.0035  0.0655  1.0000  -1.9659   0.0000   0.0000   0.0000   0.2545
   4.100   0.4715   0.01026   0.00342  -0.0031  0.0583  1.0000  -2.0383   0.0000   0.0000   0.0000   0.2535
   4.200   0.4814   0.01037   0.00355  -0.0028  0.0566  1.0000  -2.1221   0.0000   0.0000   0.0000   0.2527
   4.300   0.4912   0.01051   0.00371  -0.0025  0.0543  1.0000  -2.2044   0.0000   0.0000   0.0000   0.2520
   4.400   0.5009   0.01068   0.00390  -0.0022  0.0522  1.0000  -2.2865   0.0000   0.0000   0.0000   0.2512
   4.500   0.5106   0.01085   0.00409  -0.0019  0.0504  1.0000  -2.3694   0.0000   0.0000   0.0000   0.2504
   4.600   0.5202   0.01103   0.00428  -0.0016  0.0487  1.0000  -2.4543   0.0000   0.0000   0.0000   0.2497
   4.700   0.5298   0.01123   0.00448  -0.0013  0.0470  1.0000  -2.5398   0.0000   0.0000   0.0000   0.2490
   4.800   0.5393   0.01144   0.00471  -0.0010  0.0456  1.0000  -2.6239   0.0000   0.0000   0.0000   0.2483
   4.900   0.5487   0.01170   0.00499  -0.0006  0.0443  1.0000  -2.7067   0.0000   0.0000   0.0000   0.2476
   5.000   0.5578   0.01200   0.00532  -0.0002  0.0428  1.0000  -2.7875   0.0000   0.0000   0.0000   0.2468
   5.100   0.5666   0.01239   0.00580   0.0002  0.0413  1.0000  -2.8662   0.0000   0.0000   0.0000   0.2459
   5.200   0.5748   0.01297   0.00645   0.0007  0.0399  1.0000  -2.9336   0.0000   0.0000   0.0000   0.2450
   5.300   0.5838   0.01338   0.00690   0.0011  0.0391  1.0000  -3.0129   0.0000   0.0000   0.0000   0.2442
   5.400   0.5939   0.01347   0.00700   0.0013  0.0389  1.0000  -3.1122   0.0000   0.0000   0.0000   0.2439
   5.500   0.6041   0.01355   0.00711   0.0015  0.0385  1.0000  -3.2188   0.0000   0.0000   0.0000   0.2435
   5.600   0.6143   0.01365   0.00722   0.0017  0.0380  1.0000  -3.3390   0.0000   0.0000   0.0000   0.2432
   5.700   0.6244   0.01376   0.00735   0.0019  0.0374  1.0000  -3.4599   0.0000   0.0000   0.0000   0.2428
   5.800   0.6345   0.01388   0.00750   0.0021  0.0364  1.0000  -3.5808   0.0000   0.0000   0.0000   0.2425
   5.900   0.6447   0.01401   0.00765   0.0023  0.0352  1.0000  -3.7029   0.0000   0.0000   0.0000   0.2422
   6.000   0.6548   0.01413   0.00779   0.0025  0.0336  1.0000  -3.8265   0.0000   0.0000   0.0000   0.2419
   6.100   0.6649   0.01423   0.00791   0.0026  0.0319  1.0000  -3.9540   0.0000   0.0000   0.0000   0.2416
   6.200   0.6751   0.01432   0.00798   0.0028  0.0301  1.0000  -4.0870   0.0000   0.0000   0.0000   0.2414
   6.300   0.6852   0.01443   0.00809   0.0029  0.0283  1.0000  -4.2210   0.0000   0.0000   0.0000   0.2412
   6.400   0.6941   0.01488   0.00854   0.0033  0.0263  1.0000  -4.3267   0.0000   0.0000   0.0000   0.2406
   6.500   0.6977   0.01719   0.01106   0.0045  0.0233  1.0000  -4.2858   0.0000   0.0000   0.0000   0.2389
   6.600   0.7083   0.01713   0.01101   0.0046  0.0230  1.0000  -4.4253   0.0000   0.0000   0.0000   0.2387
   6.700   0.7187   0.01716   0.01106   0.0047  0.0226  1.0000  -4.5596   0.0000   0.0000   0.0000   0.2386
   6.800   0.7289   0.01729   0.01122   0.0049  0.0221  1.0000  -4.6874   0.0000   0.0000   0.0000   0.2383
   6.900   0.7389   0.01751   0.01148   0.0051  0.0215  1.0000  -4.8071   0.0000   0.0000   0.0000   0.2380
   7.000   0.7486   0.01783   0.01185   0.0054  0.0208  1.0000  -4.9182   0.0000   0.0000   0.0000   0.2377
   7.100   0.7581   0.01823   0.01230   0.0057  0.0200  1.0000  -5.0215   0.0000   0.0000   0.0000   0.2373
   7.200   0.7674   0.01871   0.01290   0.0060  0.0193  1.0000  -5.1207   0.0000   0.0000   0.0000   0.2368
   7.300   0.7766   0.01920   0.01346   0.0064  0.0185  1.0000  -5.2161   0.0000   0.0000   0.0000   0.2364
   7.400   0.7859   0.01961   0.01393   0.0067  0.0178  1.0000  -5.3207   0.0000   0.0000   0.0000   0.2360
   7.500   0.7954   0.01991   0.01426   0.0069  0.0171  1.0000  -5.4397   0.0000   0.0000   0.0000   0.2358
   7.600   0.8052   0.02009   0.01446   0.0071  0.0164  1.0000  -5.5741   0.0000   0.0000   0.0000   0.2355
   7.700   0.8150   0.02019   0.01456   0.0072  0.0157  1.0000  -5.7201   0.0000   0.0000   0.0000   0.2354
   7.800   0.8248   0.02029   0.01467   0.0073  0.0152  1.0000  -5.8690   0.0000   0.0000   0.0000   0.2352
   7.900   0.8341   0.02055   0.01496   0.0075  0.0146  1.0000  -6.0032   0.0000   0.0000   0.0000   0.2350
   8.000   0.8426   0.02113   0.01559   0.0079  0.0142  1.0000  -6.1035   0.0000   0.0000   0.0000   0.2346
   8.100   0.8503   0.02194   0.01650   0.0083  0.0138  1.0000  -6.1801   0.0000   0.0000   0.0000   0.2341
   8.200   0.8569   0.02306   0.01775   0.0088  0.0134  1.0000  -6.2272   0.0000   0.0000   0.0000   0.2335
   8.300   0.8622   0.02458   0.01945   0.0095  0.0130  1.0000  -6.2362   0.0000   0.0000   0.0000   0.2327
   8.400   0.8654   0.02660   0.02170   0.0103  0.0127  1.0000  -6.1978   0.0000   0.0000   0.0000   0.2318
   8.500   0.8661   0.02917   0.02456   0.0112  0.0125  1.0000  -6.1080   0.0000   0.0000   0.0000   0.2307
   8.600   0.8642   0.03219   0.02790   0.0122  0.0123  1.0000  -5.9763   0.0000   0.0000   0.0000   0.2295
   8.700   0.8606   0.03537   0.03139   0.0132  0.0122  1.0000  -5.8288   0.0000   0.0000   0.0000   0.2283
   8.800   0.8560   0.03847   0.03476   0.0140  0.0121  1.0000  -5.6869   0.0000   0.0000   0.0000   0.2272
   8.900   0.8593   0.03966   0.03606   0.0144  0.0120  1.0000  -5.7119   0.0000   0.0000   0.0000   0.2267
   9.000   0.8661   0.04012   0.03660   0.0147  0.0118  1.0000  -5.8005   0.0000   0.0000   0.0000   0.2264
   9.100   0.8694   0.04125   0.03784   0.0150  0.0117  1.0000  -5.8285   0.0000   0.0000   0.0000   0.2260
   9.200   0.8705   0.04277   0.03948   0.0154  0.0117  1.0000  -5.8210   0.0000   0.0000   0.0000   0.2255
   9.300   0.8693   0.04459   0.04144   0.0158  0.0116  1.0000  -5.7852   0.0000   0.0000   0.0000   0.2250
   9.400   0.8660   0.04667   0.04366   0.0161  0.0116  1.0000  -5.7260   0.0000   0.0000   0.0000   0.2245
   9.500   0.8605   0.04897   0.04608   0.0162  0.0116  1.0000  -5.6478   0.0000   0.0000   0.0000   0.2242
   9.600   0.8529   0.05142   0.04866   0.0162  0.0116  1.0000  -5.5547   0.0000   0.0000   0.0000   0.2240
   9.700   0.8426   0.05381   0.05115   0.0162  0.0117  1.0000  -5.4560   0.0000   0.0000   0.0000   0.2236
   9.800   0.8298   0.05636   0.05379   0.0158  0.0117  1.0000  -5.3444   0.0000   0.0000   0.0000   0.2237
  10.300   0.7912   0.07362   0.07136  -0.0004  0.0122  1.0000  -4.8783   0.0000   0.0000   0.0000   0.2426
  10.400   0.7899   0.07752   0.07530  -0.0037  0.0123  1.0000  -4.8048   0.0000   0.0000   0.0000   0.2468
  10.500   0.7881   0.08141   0.07921  -0.0063  0.0124  1.0000  -4.7099   0.0000   0.0000   0.0000   0.2501
  10.600   0.7853   0.08504   0.08284  -0.0083  0.0125  1.0000  -4.6045   0.0000   0.0000   0.0000   0.2527
  10.700   0.7821   0.08836   0.08614  -0.0101  0.0126  1.0000  -4.5054   0.0000   0.0000   0.0000   0.2550
  10.800   0.7786   0.09156   0.08934  -0.0118  0.0128  1.0000  -4.4047   0.0000   0.0000   0.0000   0.2572
  10.900   0.7745   0.09489   0.09267  -0.0135  0.0129  1.0000  -4.2868   0.0000   0.0000   0.0000   0.2595
  11.000   0.7171   0.11519   0.11282  -0.0231  0.0183  1.0000  -2.7827   0.0000   0.0000   0.0000   0.2751
  11.100   0.7134   0.11799   0.11561  -0.0242  0.0193  1.0000  -2.6886   0.0000   0.0000   0.0000   0.2767
  11.200   0.7097   0.12056   0.11817  -0.0249  0.0207  1.0000  -2.6174   0.0000   0.0000   0.0000   0.2778
  11.300   0.6922   0.12588   0.12347  -0.0253  0.0231  1.0000  -2.4260   0.0000   0.0000   0.0000   0.2793
  11.400   0.6920   0.12801   0.12559  -0.0261  0.0231  1.0000  -2.3904   0.0000   0.0000   0.0000   0.2804
  11.500   0.6920   0.13009   0.12767  -0.0269  0.0231  1.0000  -2.3567   0.0000   0.0000   0.0000   0.2815
  11.600   0.6920   0.13213   0.12970  -0.0277  0.0231  1.0000  -2.3249   0.0000   0.0000   0.0000   0.2826
  11.700   0.6922   0.13414   0.13171  -0.0285  0.0231  1.0000  -2.2946   0.0000   0.0000   0.0000   0.2836
  11.800   0.6925   0.13612   0.13369  -0.0292  0.0231  1.0000  -2.2658   0.0000   0.0000   0.0000   0.2846
  11.900   0.6929   0.13809   0.13566  -0.0300  0.0231  1.0000  -2.2382   0.0000   0.0000   0.0000   0.2856
  12.000   0.6935   0.14005   0.13760  -0.0307  0.0231  1.0000  -2.2119   0.0000   0.0000   0.0000   0.2865
  12.100   0.6942   0.14198   0.13953  -0.0315  0.0231  1.0000  -2.1868   0.0000   0.0000   0.0000   0.2875
  12.200   0.6950   0.14389   0.14145  -0.0322  0.0231  1.0000  -2.1683   0.0000   0.0000   0.0000   0.2884
  12.300   0.6959   0.14579   0.14334  -0.0329  0.0231  1.0000  -2.1569   0.0000   0.0000   0.0000   0.2894
  12.400   0.6968   0.14767   0.14522  -0.0336  0.0230  1.0000  -2.1465   0.0000   0.0000   0.0000   0.2903
  12.500   0.6979   0.14953   0.14707  -0.0344  0.0230  1.0000  -2.1369   0.0000   0.0000   0.0000   0.2912
  12.600   0.6991   0.15137   0.14891  -0.0351  0.0230  1.0000  -2.1282   0.0000   0.0000   0.0000   0.2920
  12.700   0.7003   0.15320   0.15073  -0.0358  0.0230  1.0000  -2.1203   0.0000   0.0000   0.0000   0.2929
  12.800   0.7017   0.15500   0.15253  -0.0365  0.0230  1.0000  -2.1132   0.0000   0.0000   0.0000   0.2938
  12.900   0.7030   0.15677   0.15430  -0.0373  0.0229  1.0000  -2.1069   0.0000   0.0000   0.0000   0.2946
  13.000   0.7045   0.15852   0.15604  -0.0380  0.0229  1.0000  -2.1013   0.0000   0.0000   0.0000   0.2954
  13.100   0.7060   0.16023   0.15776  -0.0387  0.0229  1.0000  -2.0966   0.0000   0.0000   0.0000   0.2962
  13.200   0.7076   0.16192   0.15944  -0.0394  0.0228  1.0000  -2.0928   0.0000   0.0000   0.0000   0.2970
  13.300   0.7094   0.16357   0.16109  -0.0401  0.0227  1.0000  -2.0901   0.0000   0.0000   0.0000   0.2978
  13.400   0.7113   0.16519   0.16275  -0.0408  0.0227  1.0000  -2.0844   0.0000   0.0000   0.0000   0.2986
  13.500   0.7135   0.16674   0.16430  -0.0416  0.0225  1.0000  -2.0841   0.0000   0.0000   0.0000   0.2994
  13.600   0.7160   0.16817   0.16573  -0.0423  0.0224  1.0000  -2.0865   0.0000   0.0000   0.0000   0.3002
  13.700   0.7185   0.16950   0.16705  -0.0433  0.0220  1.0000  -2.0828   0.0000   0.0000   0.0000   0.3013
  13.800   0.7202   0.17089   0.16844  -0.0446  0.0214  1.0000  -2.0615   0.0000   0.0000   0.0000   0.3029
  13.900   0.7222   0.17244   0.16999  -0.0458  0.0208  1.0000  -2.0426   0.0000   0.0000   0.0000   0.3042
  14.000   0.7242   0.17408   0.17163  -0.0467  0.0202  1.0000  -2.0307   0.0000   0.0000   0.0000   0.3053
  14.100   0.7261   0.17573   0.17328  -0.0475  0.0197  1.0000  -2.0239   0.0000   0.0000   0.0000   0.3062
  14.200   0.7281   0.17737   0.17491  -0.0483  0.0192  1.0000  -2.0203   0.0000   0.0000   0.0000   0.3070
  14.300   0.7301   0.17900   0.17654  -0.0490  0.0188  1.0000  -2.0190   0.0000   0.0000   0.0000   0.3077
  14.400   0.7321   0.18061   0.17815  -0.0498  0.0184  1.0000  -2.0193   0.0000   0.0000   0.0000   0.3084
  14.500   0.7341   0.18221   0.17974  -0.0505  0.0180  1.0000  -2.0210   0.0000   0.0000   0.0000   0.3091
  14.600   0.7362   0.18378   0.18132  -0.0512  0.0176  1.0000  -2.0245   0.0000   0.0000   0.0000   0.3098
  14.700   0.7383   0.18533   0.18286  -0.0518  0.0173  1.0000  -2.0303   0.0000   0.0000   0.0000   0.3104
  14.800   0.7406   0.18685   0.18438  -0.0525  0.0169  1.0000  -2.0388   0.0000   0.0000   0.0000   0.3110
  14.900   0.7429   0.18832   0.18585  -0.0532  0.0165  1.0000  -2.0505   0.0000   0.0000   0.0000   0.3115
  15.000   0.7453   0.18975   0.18728  -0.0538  0.0161  1.0000  -2.0661   0.0000   0.0000   0.0000   0.3120


