xflr5 v6.61

 Calculated polar for: NACA 0008

 1 1 Reynolds number fixed          Mach number fixed         

 xtrf =   1.000 (top)        1.000 (bottom)
 Mach =   0.000     Re =     0.150 e 6     Ncrit =   9.000

  alpha     CL        CD       CDp       Cm    Top Xtr Bot Xtr   Cpmin    Chinge    XCp    
 ------- -------- --------- --------- -------- ------- ------- -------- --------- ---------
 -13.000  -0.7004   0.16048   0.15624   0.0385  1.0000  0.0466  -1.9005   0.0000   0.0000   0.0000   0.2968
 -12.900  -0.6988   0.15897   0.15473   0.0380  1.0000  0.0473  -1.9051   0.0000   0.0000   0.0000   0.2963
 -12.800  -0.6972   0.15747   0.15323   0.0374  1.0000  0.0482  -1.9097   0.0000   0.0000   0.0000   0.2957
 -12.700  -0.6958   0.15597   0.15174   0.0369  1.0000  0.0493  -1.9153   0.0000   0.0000   0.0000   0.2951
 -12.600  -0.6946   0.15446   0.15023   0.0362  1.0000  0.0507  -1.9244   0.0000   0.0000   0.0000   0.2943
 -12.500  -0.6938   0.15290   0.14868   0.0353  1.0000  0.0521  -1.9393   0.0000   0.0000   0.0000   0.2932
 -12.400  -0.6935   0.15133   0.14711   0.0343  1.0000  0.0536  -1.9628   0.0000   0.0000   0.0000   0.2918
 -12.300  -0.6940   0.14977   0.14557   0.0328  1.0000  0.0550  -1.9986   0.0000   0.0000   0.0000   0.2898
 -12.200  -0.6953   0.14831   0.14412   0.0309  1.0000  0.0562  -2.0488   0.0000   0.0000   0.0000   0.2870
 -12.100  -0.6968   0.14704   0.14287   0.0287  1.0000  0.0571  -2.1046   0.0000   0.0000   0.0000   0.2837
 -12.000  -0.6980   0.14579   0.14163   0.0267  1.0000  0.0577  -2.1522   0.0000   0.0000   0.0000   0.2809
 -11.900  -0.6977   0.14452   0.14038   0.0252  1.0000  0.0581  -2.1832   0.0000   0.0000   0.0000   0.2789
 -11.800  -0.6975   0.14303   0.13889   0.0240  1.0000  0.0583  -2.2117   0.0000   0.0000   0.0000   0.2772
 -11.700  -0.6973   0.14139   0.13726   0.0228  1.0000  0.0584  -2.2394   0.0000   0.0000   0.0000   0.2756
 -11.600  -0.6972   0.13964   0.13552   0.0216  1.0000  0.0585  -2.2669   0.0000   0.0000   0.0000   0.2740
 -11.500  -0.6971   0.13782   0.13371   0.0205  1.0000  0.0586  -2.2944   0.0000   0.0000   0.0000   0.2725
 -11.400  -0.6971   0.13593   0.13183   0.0194  1.0000  0.0586  -2.3220   0.0000   0.0000   0.0000   0.2709
 -11.300  -0.6971   0.13399   0.12990   0.0183  1.0000  0.0587  -2.3499   0.0000   0.0000   0.0000   0.2694
 -11.200  -0.6984   0.13154   0.12750   0.0171  1.0000  0.0588  -2.3891   0.0000   0.0000   0.0000   0.2678
 -11.100  -0.7095   0.12534   0.12132   0.0169  1.0000  0.0601  -2.4757   0.0000   0.0000   0.0000   0.2670
 -11.000  -0.7037   0.12380   0.11976   0.0190  1.0000  0.0613  -2.4016   0.0000   0.0000   0.0000   0.2703
 -10.900  -0.6997   0.12249   0.11845   0.0198  1.0000  0.0620  -2.3600   0.0000   0.0000   0.0000   0.2717
 -10.800  -0.6961   0.12123   0.11718   0.0203  1.0000  0.0628  -2.3257   0.0000   0.0000   0.0000   0.2727
 -10.700  -0.6934   0.11989   0.11584   0.0205  1.0000  0.0636  -2.3023   0.0000   0.0000   0.0000   0.2732
 -10.600  -0.6911   0.11850   0.11444   0.0205  1.0000  0.0644  -2.2858   0.0000   0.0000   0.0000   0.2733
 -10.500  -0.6895   0.11703   0.11298   0.0203  1.0000  0.0652  -2.2762   0.0000   0.0000   0.0000   0.2732
 -10.400  -0.6883   0.11549   0.11145   0.0199  1.0000  0.0660  -2.2720   0.0000   0.0000   0.0000   0.2728
 -10.300  -0.6875   0.11390   0.10986   0.0195  1.0000  0.0669  -2.2721   0.0000   0.0000   0.0000   0.2722
 -10.200  -0.6870   0.11223   0.10820   0.0189  1.0000  0.0677  -2.2763   0.0000   0.0000   0.0000   0.2714
 -10.100  -0.6869   0.11051   0.10649   0.0181  1.0000  0.0687  -2.2845   0.0000   0.0000   0.0000   0.2705
 -10.000  -0.6871   0.10873   0.10472   0.0173  1.0000  0.0696  -2.2965   0.0000   0.0000   0.0000   0.2693
  -9.900  -0.6877   0.10689   0.10289   0.0164  1.0000  0.0706  -2.3124   0.0000   0.0000   0.0000   0.2680
  -9.800  -0.6887   0.10499   0.10099   0.0153  1.0000  0.0716  -2.3322   0.0000   0.0000   0.0000   0.2665
  -9.700  -0.6900   0.10300   0.09902   0.0141  1.0000  0.0726  -2.3568   0.0000   0.0000   0.0000   0.2648
  -9.600  -0.6918   0.10091   0.09695   0.0126  1.0000  0.0737  -2.3873   0.0000   0.0000   0.0000   0.2627
  -9.500  -0.6943   0.09869   0.09475   0.0108  1.0000  0.0748  -2.4260   0.0000   0.0000   0.0000   0.2601
  -9.400  -0.6976   0.09631   0.09239   0.0085  1.0000  0.0759  -2.4758   0.0000   0.0000   0.0000   0.2567
  -9.300  -0.7025   0.09357   0.08967   0.0049  1.0000  0.0772  -2.5492   0.0000   0.0000   0.0000   0.2517
  -9.200  -0.7099   0.09018   0.08631  -0.0004  1.0000  0.0781  -2.6481   0.0000   0.0000   0.0000   0.2442
  -9.100  -0.7174   0.08685   0.08299  -0.0048  1.0000  0.0783  -2.7285   0.0000   0.0000   0.0000   0.2381
  -9.000  -0.7282   0.08508   0.08114  -0.0082  1.0000  0.0792  -2.8115   0.0000   0.0000   0.0000   0.2337
  -8.900  -0.7354   0.08368   0.07967  -0.0098  1.0000  0.0796  -2.8651   0.0000   0.0000   0.0000   0.2317
  -8.800  -0.7401   0.08213   0.07804  -0.0109  1.0000  0.0798  -2.9043   0.0000   0.0000   0.0000   0.2304
  -8.700  -0.7436   0.08050   0.07633  -0.0116  1.0000  0.0799  -2.9367   0.0000   0.0000   0.0000   0.2295
  -8.300  -0.7566   0.06175   0.05734  -0.0148  1.0000  0.0561  -3.3924   0.0000   0.0000   0.0000   0.2254
  -8.200  -0.7599   0.05867   0.05423  -0.0150  1.0000  0.0539  -3.4340   0.0000   0.0000   0.0000   0.2253
  -8.100  -0.7621   0.05591   0.05137  -0.0151  1.0000  0.0519  -3.4872   0.0000   0.0000   0.0000   0.2252
  -8.000  -0.7645   0.05284   0.04815  -0.0152  1.0000  0.0497  -3.5698   0.0000   0.0000   0.0000   0.2251
  -7.900  -0.7801   0.04517   0.03970  -0.0147  1.0000  0.0426  -4.0376   0.0000   0.0000   0.0000   0.2259
  -7.800  -0.7764   0.04320   0.03745  -0.0140  1.0000  0.0415  -4.1021   0.0000   0.0000   0.0000   0.2267
  -7.700  -0.7717   0.04159   0.03566  -0.0135  1.0000  0.0411  -4.1132   0.0000   0.0000   0.0000   0.2274
  -7.600  -0.7670   0.03994   0.03383  -0.0130  1.0000  0.0411  -4.1182   0.0000   0.0000   0.0000   0.2280
  -7.500  -0.7622   0.03822   0.03192  -0.0125  1.0000  0.0411  -4.1216   0.0000   0.0000   0.0000   0.2286
  -7.400  -0.7573   0.03645   0.02997  -0.0119  1.0000  0.0413  -4.1223   0.0000   0.0000   0.0000   0.2292
  -7.300  -0.7520   0.03471   0.02805  -0.0114  1.0000  0.0416  -4.1169   0.0000   0.0000   0.0000   0.2298
  -7.200  -0.7462   0.03310   0.02628  -0.0109  1.0000  0.0422  -4.0975   0.0000   0.0000   0.0000   0.2304
  -7.100  -0.7394   0.03207   0.02521  -0.0107  1.0000  0.0438  -4.0242   0.0000   0.0000   0.0000   0.2307
  -7.000  -0.7315   0.03167   0.02479  -0.0105  1.0000  0.0459  -3.9181   0.0000   0.0000   0.0000   0.2309
  -6.900  -0.7229   0.03129   0.02440  -0.0103  1.0000  0.0482  -3.8181   0.0000   0.0000   0.0000   0.2311
  -6.800  -0.7148   0.03050   0.02351  -0.0099  1.0000  0.0499  -3.7555   0.0000   0.0000   0.0000   0.2316
  -6.700  -0.7067   0.02942   0.02226  -0.0094  1.0000  0.0510  -3.7164   0.0000   0.0000   0.0000   0.2322
  -6.600  -0.6985   0.02825   0.02091  -0.0088  1.0000  0.0519  -3.6835   0.0000   0.0000   0.0000   0.2328
  -6.500  -0.6899   0.02719   0.01968  -0.0083  1.0000  0.0529  -3.6425   0.0000   0.0000   0.0000   0.2335
  -6.400  -0.6809   0.02625   0.01858  -0.0078  1.0000  0.0541  -3.5934   0.0000   0.0000   0.0000   0.2341
  -6.300  -0.6716   0.02544   0.01762  -0.0074  1.0000  0.0554  -3.5360   0.0000   0.0000   0.0000   0.2346
  -6.200  -0.6621   0.02479   0.01683  -0.0070  1.0000  0.0567  -3.4689   0.0000   0.0000   0.0000   0.2352
  -6.100  -0.6522   0.02447   0.01639  -0.0066  1.0000  0.0580  -3.3850   0.0000   0.0000   0.0000   0.2357
  -6.000  -0.6442   0.02287   0.01462  -0.0062  1.0000  0.0607  -3.3437   0.0000   0.0000   0.0000   0.2362
  -5.900  -0.6358   0.02176   0.01350  -0.0059  1.0000  0.0641  -3.2665   0.0000   0.0000   0.0000   0.2365
  -5.800  -0.6264   0.02131   0.01303  -0.0057  1.0000  0.0667  -3.1690   0.0000   0.0000   0.0000   0.2369
  -5.700  -0.6167   0.02082   0.01250  -0.0054  1.0000  0.0688  -3.0793   0.0000   0.0000   0.0000   0.2373
  -5.600  -0.6069   0.02029   0.01192  -0.0051  1.0000  0.0704  -3.0010   0.0000   0.0000   0.0000   0.2377
  -5.500  -0.5970   0.01979   0.01135  -0.0047  1.0000  0.0719  -2.9324   0.0000   0.0000   0.0000   0.2382
  -5.400  -0.5870   0.01932   0.01082  -0.0044  1.0000  0.0736  -2.8617   0.0000   0.0000   0.0000   0.2387
  -5.300  -0.5771   0.01902   0.01047  -0.0041  1.0000  0.0760  -2.7823   0.0000   0.0000   0.0000   0.2391
  -5.200  -0.5671   0.01877   0.01010  -0.0038  1.0000  0.0782  -2.6999   0.0000   0.0000   0.0000   0.2395
  -5.100  -0.5570   0.01850   0.00976  -0.0035  1.0000  0.0796  -2.6227   0.0000   0.0000   0.0000   0.2400
  -5.000  -0.5473   0.01793   0.00916  -0.0032  1.0000  0.0808  -2.5571   0.0000   0.0000   0.0000   0.2406
  -4.900  -0.5386   0.01701   0.00825  -0.0027  1.0000  0.0833  -2.5036   0.0000   0.0000   0.0000   0.2415
  -4.800  -0.5298   0.01641   0.00768  -0.0022  1.0000  0.0862  -2.4389   0.0000   0.0000   0.0000   0.2423
  -4.700  -0.5207   0.01600   0.00728  -0.0019  1.0000  0.0896  -2.3682   0.0000   0.0000   0.0000   0.2430
  -4.600  -0.5114   0.01565   0.00692  -0.0015  1.0000  0.0936  -2.2970   0.0000   0.0000   0.0000   0.2438
  -4.500  -0.5019   0.01533   0.00658  -0.0011  1.0000  0.0983  -2.2268   0.0000   0.0000   0.0000   0.2445
  -4.400  -0.4924   0.01502   0.00624  -0.0007  1.0000  0.1029  -2.1575   0.0000   0.0000   0.0000   0.2454
  -4.300  -0.4844   0.01445   0.00577  -0.0002  1.0000  0.1121  -2.0957   0.0000   0.0000   0.0000   0.2465
  -4.200  -0.4751   0.01412   0.00544   0.0002  1.0000  0.1236  -2.0276   0.0000   0.0000   0.0000   0.2474
  -4.100  -0.4672   0.01351   0.00504   0.0008  1.0000  0.1499  -1.9695   0.0000   0.0000   0.0000   0.2485
  -4.000  -0.4602   0.01278   0.00470   0.0013  1.0000  0.2087  -1.9201   0.0000   0.0000   0.0000   0.2497
  -3.900  -0.4529   0.01220   0.00449   0.0017  1.0000  0.2777  -1.8661   0.0000   0.0000   0.0000   0.2508
  -3.800  -0.4450   0.01180   0.00434   0.0022  1.0000  0.3336  -1.8071   0.0000   0.0000   0.0000   0.2520
  -3.700  -0.4370   0.01146   0.00423   0.0027  1.0000  0.3829  -1.7464   0.0000   0.0000   0.0000   0.2533
  -3.600  -0.4290   0.01115   0.00413   0.0033  1.0000  0.4303  -1.6853   0.0000   0.0000   0.0000   0.2548
  -3.500  -0.4209   0.01088   0.00406   0.0039  1.0000  0.4752  -1.6238   0.0000   0.0000   0.0000   0.2564
  -3.400  -0.4127   0.01064   0.00395   0.0045  1.0000  0.5173  -1.5613   0.0000   0.0000   0.0000   0.2582
  -3.300  -0.4045   0.01042   0.00390   0.0052  1.0000  0.5554  -1.5006   0.0000   0.0000   0.0000   0.2602
  -3.200  -0.3961   0.01023   0.00386   0.0059  1.0000  0.5904  -1.4513   0.0000   0.0000   0.0000   0.2623
  -3.100  -0.3877   0.01006   0.00382   0.0066  1.0000  0.6225  -1.4118   0.0000   0.0000   0.0000   0.2645
  -3.000  -0.3791   0.00992   0.00378   0.0073  1.0000  0.6538  -1.3721   0.0000   0.0000   0.0000   0.2668
  -2.900  -0.3705   0.00978   0.00376   0.0080  1.0000  0.6831  -1.3325   0.0000   0.0000   0.0000   0.2693
  -2.800  -0.3619   0.00967   0.00374   0.0088  1.0000  0.7108  -1.2929   0.0000   0.0000   0.0000   0.2721
  -2.700  -0.3534   0.00957   0.00374   0.0097  1.0000  0.7392  -1.2536   0.0000   0.0000   0.0000   0.2752
  -2.600  -0.3450   0.00950   0.00375   0.0106  1.0000  0.7679  -1.2146   0.0000   0.0000   0.0000   0.2785
  -2.500  -0.3366   0.00944   0.00377   0.0116  1.0000  0.7960  -1.1758   0.0000   0.0000   0.0000   0.2822
  -2.400  -0.3279   0.00942   0.00382   0.0126  1.0000  0.8227  -1.1365   0.0000   0.0000   0.0000   0.2863
  -2.300  -0.3186   0.00942   0.00388   0.0135  1.0000  0.8481  -1.0962   0.0000   0.0000   0.0000   0.2903
  -2.200  -0.3082   0.00946   0.00394   0.0142  1.0000  0.8715  -1.0542   0.0000   0.0000   0.0000   0.2940
  -2.100  -0.2964   0.00951   0.00399   0.0146  1.0000  0.8924  -1.0099   0.0000   0.0000   0.0000   0.2971
  -2.000  -0.2837   0.00956   0.00400   0.0147  1.0000  0.9113  -0.9645   0.0000   0.0000   0.0000   0.2997
  -1.900  -0.2657   0.00964   0.00405   0.0137  1.0000  0.9270  -0.9095   0.0000   0.0000   0.0000   0.2996
  -1.800  -0.2458   0.00972   0.00409   0.0122  1.0000  0.9404  -0.8518   0.0000   0.0000   0.0000   0.2978
  -1.700  -0.2270   0.00979   0.00411   0.0109  1.0000  0.9534  -0.7969   0.0000   0.0000   0.0000   0.2960
  -1.600  -0.2025   0.00985   0.00412   0.0084  1.0000  0.9616  -0.7328   0.0000   0.0000   0.0000   0.2892
  -1.500  -0.1784   0.00990   0.00411   0.0058  1.0000  0.9696  -0.6703   0.0000   0.0000   0.0000   0.2803
  -1.400  -0.1546   0.00993   0.00409   0.0032  1.0000  0.9769  -0.6096   0.0000   0.0000   0.0000   0.2687
  -1.300  -0.1283   0.00993   0.00403   0.0001  1.0000  0.9821  -0.5589   0.0000   0.0000   0.0000   0.2485
  -1.200  -0.1043   0.00992   0.00396  -0.0026  1.0000  0.9887  -0.5142   0.0000   0.0000   0.0000   0.2226
  -1.100  -0.0798   0.00988   0.00389  -0.0054  1.0000  0.9940  -0.4693   0.0000   0.0000   0.0000   0.1792
  -1.000  -0.0552   0.00983   0.00380  -0.0083  1.0000  0.9993  -0.4250   0.0000   0.0000   0.0000   0.0954
  -0.900  -0.0463   0.00975   0.00371  -0.0082  1.0000  1.0000  -0.4016   0.0000   0.0000   0.0000   0.0684
  -0.800  -0.0401   0.00968   0.00363  -0.0076  1.0000  1.0000  -0.3817   0.0000   0.0000   0.0000   0.0566
  -0.700  -0.0341   0.00961   0.00356  -0.0069  1.0000  1.0000  -0.3622   0.0000   0.0000   0.0000   0.0444
  -0.600  -0.0285   0.00956   0.00350  -0.0061  1.0000  1.0000  -0.3450   0.0000   0.0000   0.0000   0.0323
  -0.500  -0.0232   0.00951   0.00345  -0.0052  1.0000  1.0000  -0.3335   0.0000   0.0000   0.0000   0.0215
  -0.400  -0.0182   0.00947   0.00341  -0.0042  1.0000  1.0000  -0.3223   0.0000   0.0000   0.0000   0.0133
  -0.300  -0.0136   0.00944   0.00338  -0.0032  1.0000  1.0000  -0.3114   0.0000   0.0000   0.0000   0.0091
  -0.200  -0.0091   0.00942   0.00336  -0.0021  1.0000  1.0000  -0.3006   0.0000   0.0000   0.0000   0.0090
  -0.100  -0.0045   0.00941   0.00335  -0.0011  1.0000  1.0000  -0.2900   0.0000   0.0000   0.0000   0.0081
   0.000  -0.0000   0.00940   0.00335   0.0000  1.0000  1.0000  -0.2809   0.0000   0.0000   0.0000   0.4168
   0.100   0.0045   0.00941   0.00335   0.0011  1.0000  1.0000  -0.2900   0.0000   0.0000   0.0000   0.0081
   0.200   0.0091   0.00942   0.00336   0.0021  1.0000  1.0000  -0.3006   0.0000   0.0000   0.0000   0.0090
   0.300   0.0136   0.00944   0.00338   0.0032  1.0000  1.0000  -0.3114   0.0000   0.0000   0.0000   0.0091
   0.400   0.0182   0.00947   0.00341   0.0042  1.0000  1.0000  -0.3223   0.0000   0.0000   0.0000   0.0134
   0.500   0.0232   0.00951   0.00345   0.0052  1.0000  1.0000  -0.3335   0.0000   0.0000   0.0000   0.0216
   0.600   0.0285   0.00956   0.00350   0.0061  1.0000  1.0000  -0.3450   0.0000   0.0000   0.0000   0.0325
   0.700   0.0341   0.00961   0.00356   0.0069  1.0000  1.0000  -0.3622   0.0000   0.0000   0.0000   0.0446
   0.800   0.0401   0.00968   0.00363   0.0076  1.0000  1.0000  -0.3817   0.0000   0.0000   0.0000   0.0568
   0.900   0.0463   0.00975   0.00371   0.0082  1.0000  1.0000  -0.4017   0.0000   0.0000   0.0000   0.0686
   1.000   0.0552   0.00983   0.00380   0.0083  0.9993  1.0000  -0.4250   0.0000   0.0000   0.0000   0.0952
   1.100   0.0798   0.00988   0.00389   0.0054  0.9940  1.0000  -0.4693   0.0000   0.0000   0.0000   0.1791
   1.200   0.1043   0.00992   0.00396   0.0026  0.9887  1.0000  -0.5141   0.0000   0.0000   0.0000   0.2225
   1.300   0.1283   0.00993   0.00403  -0.0001  0.9821  1.0000  -0.5589   0.0000   0.0000   0.0000   0.2485
   1.400   0.1546   0.00993   0.00408  -0.0032  0.9769  1.0000  -0.6095   0.0000   0.0000   0.0000   0.2687
   1.500   0.1784   0.00990   0.00411  -0.0058  0.9696  1.0000  -0.6703   0.0000   0.0000   0.0000   0.2803
   1.600   0.2025   0.00985   0.00411  -0.0083  0.9616  1.0000  -0.7327   0.0000   0.0000   0.0000   0.2891
   1.700   0.2270   0.00979   0.00411  -0.0109  0.9534  1.0000  -0.7969   0.0000   0.0000   0.0000   0.2960
   1.800   0.2458   0.00972   0.00409  -0.0122  0.9404  1.0000  -0.8517   0.0000   0.0000   0.0000   0.2978
   1.900   0.2657   0.00964   0.00405  -0.0137  0.9270  1.0000  -0.9095   0.0000   0.0000   0.0000   0.2996
   2.000   0.2836   0.00956   0.00400  -0.0147  0.9113  1.0000  -0.9645   0.0000   0.0000   0.0000   0.2997
   2.100   0.2964   0.00951   0.00399  -0.0146  0.8924  1.0000  -1.0099   0.0000   0.0000   0.0000   0.2971
   2.200   0.3082   0.00946   0.00394  -0.0142  0.8715  1.0000  -1.0541   0.0000   0.0000   0.0000   0.2940
   2.300   0.3186   0.00942   0.00388  -0.0135  0.8481  1.0000  -1.0961   0.0000   0.0000   0.0000   0.2903
   2.400   0.3278   0.00942   0.00382  -0.0126  0.8227  1.0000  -1.1364   0.0000   0.0000   0.0000   0.2863
   2.600   0.3449   0.00950   0.00375  -0.0106  0.7679  1.0000  -1.2145   0.0000   0.0000   0.0000   0.2785
   2.700   0.3534   0.00957   0.00374  -0.0097  0.7392  1.0000  -1.2535   0.0000   0.0000   0.0000   0.2751
   2.800   0.3619   0.00967   0.00374  -0.0088  0.7108  1.0000  -1.2928   0.0000   0.0000   0.0000   0.2721
   2.900   0.3705   0.00978   0.00376  -0.0080  0.6831  1.0000  -1.3324   0.0000   0.0000   0.0000   0.2693
   3.000   0.3790   0.00992   0.00378  -0.0073  0.6539  1.0000  -1.3720   0.0000   0.0000   0.0000   0.2668
   3.100   0.3876   0.01006   0.00382  -0.0066  0.6226  1.0000  -1.4117   0.0000   0.0000   0.0000   0.2645
   3.200   0.3961   0.01023   0.00386  -0.0058  0.5904  1.0000  -1.4512   0.0000   0.0000   0.0000   0.2622
   3.300   0.4045   0.01042   0.00390  -0.0052  0.5555  1.0000  -1.5005   0.0000   0.0000   0.0000   0.2602
   3.400   0.4126   0.01064   0.00395  -0.0045  0.5174  1.0000  -1.5612   0.0000   0.0000   0.0000   0.2582
   3.500   0.4208   0.01088   0.00406  -0.0038  0.4753  1.0000  -1.6237   0.0000   0.0000   0.0000   0.2564
   3.600   0.4289   0.01115   0.00413  -0.0032  0.4304  1.0000  -1.6852   0.0000   0.0000   0.0000   0.2548
   3.700   0.4370   0.01146   0.00423  -0.0027  0.3830  1.0000  -1.7463   0.0000   0.0000   0.0000   0.2533
   3.800   0.4450   0.01180   0.00434  -0.0022  0.3337  1.0000  -1.8070   0.0000   0.0000   0.0000   0.2520
   3.900   0.4529   0.01220   0.00449  -0.0017  0.2778  1.0000  -1.8660   0.0000   0.0000   0.0000   0.2508
   4.000   0.4602   0.01278   0.00470  -0.0013  0.2088  1.0000  -1.9200   0.0000   0.0000   0.0000   0.2497
   4.100   0.4672   0.01351   0.00504  -0.0008  0.1500  1.0000  -1.9694   0.0000   0.0000   0.0000   0.2485
   4.200   0.4751   0.01412   0.00544  -0.0002  0.1236  1.0000  -2.0275   0.0000   0.0000   0.0000   0.2474
   4.300   0.4843   0.01445   0.00577   0.0002  0.1121  1.0000  -2.0956   0.0000   0.0000   0.0000   0.2465
   4.400   0.4924   0.01502   0.00624   0.0007  0.1029  1.0000  -2.1575   0.0000   0.0000   0.0000   0.2454
   4.500   0.5019   0.01533   0.00658   0.0011  0.0983  1.0000  -2.2267   0.0000   0.0000   0.0000   0.2445
   4.600   0.5113   0.01564   0.00692   0.0015  0.0936  1.0000  -2.2969   0.0000   0.0000   0.0000   0.2437
   4.700   0.5207   0.01600   0.00728   0.0019  0.0896  1.0000  -2.3681   0.0000   0.0000   0.0000   0.2430
   4.800   0.5298   0.01641   0.00768   0.0023  0.0862  1.0000  -2.4388   0.0000   0.0000   0.0000   0.2423
   4.900   0.5386   0.01701   0.00825   0.0027  0.0833  1.0000  -2.5035   0.0000   0.0000   0.0000   0.2414
   5.000   0.5472   0.01793   0.00916   0.0032  0.0808  1.0000  -2.5570   0.0000   0.0000   0.0000   0.2406
   5.100   0.5570   0.01850   0.00976   0.0036  0.0796  1.0000  -2.6227   0.0000   0.0000   0.0000   0.2400
   5.200   0.5671   0.01877   0.01010   0.0039  0.0782  1.0000  -2.6998   0.0000   0.0000   0.0000   0.2395
   5.300   0.5771   0.01902   0.01047   0.0041  0.0760  1.0000  -2.7822   0.0000   0.0000   0.0000   0.2391
   5.400   0.5870   0.01932   0.01082   0.0044  0.0736  1.0000  -2.8616   0.0000   0.0000   0.0000   0.2387
   5.500   0.5969   0.01979   0.01135   0.0047  0.0719  1.0000  -2.9324   0.0000   0.0000   0.0000   0.2382
   5.600   0.6069   0.02029   0.01191   0.0051  0.0704  1.0000  -3.0009   0.0000   0.0000   0.0000   0.2377
   5.700   0.6167   0.02082   0.01250   0.0054  0.0688  1.0000  -3.0792   0.0000   0.0000   0.0000   0.2373
   5.800   0.6264   0.02131   0.01303   0.0057  0.0667  1.0000  -3.1690   0.0000   0.0000   0.0000   0.2369
   5.900   0.6358   0.02176   0.01349   0.0059  0.0641  1.0000  -3.2665   0.0000   0.0000   0.0000   0.2365
   6.000   0.6442   0.02287   0.01462   0.0062  0.0607  1.0000  -3.3437   0.0000   0.0000   0.0000   0.2362
   6.100   0.6522   0.02447   0.01639   0.0066  0.0580  1.0000  -3.3851   0.0000   0.0000   0.0000   0.2357
   6.200   0.6621   0.02479   0.01683   0.0070  0.0567  1.0000  -3.4690   0.0000   0.0000   0.0000   0.2352
   6.300   0.6716   0.02544   0.01762   0.0074  0.0554  1.0000  -3.5361   0.0000   0.0000   0.0000   0.2346
   6.400   0.6809   0.02625   0.01858   0.0078  0.0541  1.0000  -3.5935   0.0000   0.0000   0.0000   0.2341
   6.500   0.6899   0.02719   0.01968   0.0083  0.0529  1.0000  -3.6425   0.0000   0.0000   0.0000   0.2335
   6.600   0.6985   0.02825   0.02091   0.0088  0.0519  1.0000  -3.6835   0.0000   0.0000   0.0000   0.2328
   6.700   0.7068   0.02942   0.02226   0.0094  0.0510  1.0000  -3.7165   0.0000   0.0000   0.0000   0.2322
   6.800   0.7148   0.03050   0.02351   0.0099  0.0499  1.0000  -3.7556   0.0000   0.0000   0.0000   0.2316
   6.900   0.7230   0.03129   0.02440   0.0103  0.0482  1.0000  -3.8183   0.0000   0.0000   0.0000   0.2311
   7.000   0.7315   0.03167   0.02479   0.0105  0.0459  1.0000  -3.9183   0.0000   0.0000   0.0000   0.2309
   7.100   0.7395   0.03207   0.02521   0.0107  0.0438  1.0000  -4.0245   0.0000   0.0000   0.0000   0.2307
   7.200   0.7463   0.03311   0.02628   0.0109  0.0422  1.0000  -4.0977   0.0000   0.0000   0.0000   0.2304
   7.300   0.7521   0.03472   0.02805   0.0114  0.0416  1.0000  -4.1169   0.0000   0.0000   0.0000   0.2299
   7.400   0.7574   0.03646   0.02997   0.0119  0.0413  1.0000  -4.1223   0.0000   0.0000   0.0000   0.2292
   7.500   0.7623   0.03822   0.03192   0.0124  0.0411  1.0000  -4.1216   0.0000   0.0000   0.0000   0.2286
   7.600   0.7671   0.03995   0.03383   0.0130  0.0411  1.0000  -4.1183   0.0000   0.0000   0.0000   0.2280
   7.700   0.7718   0.04160   0.03567   0.0135  0.0412  1.0000  -4.1132   0.0000   0.0000   0.0000   0.2274
   7.800   0.7765   0.04320   0.03746   0.0140  0.0415  1.0000  -4.1021   0.0000   0.0000   0.0000   0.2268
   7.900   0.7802   0.04519   0.03973   0.0147  0.0426  1.0000  -4.0364   0.0000   0.0000   0.0000   0.2260
   8.000   0.7646   0.05287   0.04818   0.0152  0.0497  1.0000  -3.5690   0.0000   0.0000   0.0000   0.2252
   8.100   0.7622   0.05594   0.05140   0.0151  0.0520  1.0000  -3.4867   0.0000   0.0000   0.0000   0.2253
   8.200   0.7601   0.05870   0.05426   0.0149  0.0539  1.0000  -3.4337   0.0000   0.0000   0.0000   0.2254
   8.300   0.7567   0.06183   0.05741   0.0147  0.0562  1.0000  -3.3918   0.0000   0.0000   0.0000   0.2255
   8.900   0.4225   0.01376   0.01022   0.0483  0.0557  1.0000  -2.6632   0.0000   0.0000   0.0000   0.1335
   9.000   0.4117   0.01464   0.01114   0.0481  0.0561  1.0000  -2.6189   0.0000   0.0000   0.0000   0.1311
   9.100   0.4012   0.01559   0.01212   0.0476  0.0565  1.0000  -2.5721   0.0000   0.0000   0.0000   0.1293
   9.200   0.3908   0.01661   0.01317   0.0470  0.0568  1.0000  -2.5227   0.0000   0.0000   0.0000   0.1279
   9.300   0.3807   0.01776   0.01434   0.0461  0.0571  1.0000  -2.4690   0.0000   0.0000   0.0000   0.1270
   9.400   0.3710   0.01909   0.01569   0.0450  0.0576  1.0000  -2.4100   0.0000   0.0000   0.0000   0.1268
   9.500   0.6952   0.09879   0.09485  -0.0111  0.0746  1.0000  -2.4246   0.0000   0.0000   0.0000   0.2605
   9.600   0.6928   0.10100   0.09704  -0.0129  0.0736  1.0000  -2.3869   0.0000   0.0000   0.0000   0.2630
   9.700   0.6911   0.10309   0.09911  -0.0144  0.0725  1.0000  -2.3571   0.0000   0.0000   0.0000   0.2651
   9.800   0.6898   0.10507   0.10107  -0.0156  0.0715  1.0000  -2.3331   0.0000   0.0000   0.0000   0.2669
   9.900   0.6889   0.10696   0.10296  -0.0166  0.0705  1.0000  -2.3138   0.0000   0.0000   0.0000   0.2684
  10.000   0.6884   0.10880   0.10479  -0.0176  0.0695  1.0000  -2.2983   0.0000   0.0000   0.0000   0.2697
  10.100   0.6882   0.11058   0.10656  -0.0184  0.0686  1.0000  -2.2867   0.0000   0.0000   0.0000   0.2708
  10.200   0.6884   0.11230   0.10826  -0.0191  0.0676  1.0000  -2.2790   0.0000   0.0000   0.0000   0.2717
  10.300   0.6889   0.11395   0.10991  -0.0197  0.0667  1.0000  -2.2753   0.0000   0.0000   0.0000   0.2725
  10.400   0.6898   0.11555   0.11150  -0.0202  0.0659  1.0000  -2.2758   0.0000   0.0000   0.0000   0.2731
  10.500   0.6911   0.11708   0.11303  -0.0205  0.0651  1.0000  -2.2807   0.0000   0.0000   0.0000   0.2734
  10.600   0.6928   0.11854   0.11449  -0.0207  0.0643  1.0000  -2.2911   0.0000   0.0000   0.0000   0.2735
  10.700   0.6951   0.11993   0.11588  -0.0207  0.0635  1.0000  -2.3086   0.0000   0.0000   0.0000   0.2733
  10.800   0.6979   0.12126   0.11721  -0.0205  0.0627  1.0000  -2.3329   0.0000   0.0000   0.0000   0.2728
  10.900   0.7017   0.12251   0.11847  -0.0199  0.0619  1.0000  -2.3692   0.0000   0.0000   0.0000   0.2718
  11.000   0.7057   0.12383   0.11980  -0.0191  0.0612  1.0000  -2.4110   0.0000   0.0000   0.0000   0.2703
  11.100   0.7105   0.12559   0.12158  -0.0170  0.0600  1.0000  -2.4788   0.0000   0.0000   0.0000   0.2671
  11.200   0.6985   0.13213   0.12804  -0.0175  0.0587  1.0000  -2.3778   0.0000   0.0000   0.0000   0.2683
  11.300   0.6984   0.13411   0.13002  -0.0186  0.0587  1.0000  -2.3497   0.0000   0.0000   0.0000   0.2698
  11.400   0.6984   0.13605   0.13195  -0.0197  0.0586  1.0000  -2.3218   0.0000   0.0000   0.0000   0.2713
  11.500   0.6984   0.13794   0.13382  -0.0208  0.0585  1.0000  -2.2941   0.0000   0.0000   0.0000   0.2729
  11.600   0.6985   0.13976   0.13563  -0.0220  0.0585  1.0000  -2.2665   0.0000   0.0000   0.0000   0.2744
  11.700   0.6987   0.14150   0.13737  -0.0231  0.0584  1.0000  -2.2389   0.0000   0.0000   0.0000   0.2760
  11.800   0.6989   0.14312   0.13899  -0.0243  0.0582  1.0000  -2.2111   0.0000   0.0000   0.0000   0.2776
  11.900   0.6991   0.14460   0.14045  -0.0256  0.0580  1.0000  -2.1824   0.0000   0.0000   0.0000   0.2794
  12.000   0.6994   0.14584   0.14168  -0.0272  0.0576  1.0000  -2.1497   0.0000   0.0000   0.0000   0.2815
  12.100   0.6980   0.14709   0.14292  -0.0292  0.0570  1.0000  -2.1001   0.0000   0.0000   0.0000   0.2844
  12.200   0.6965   0.14839   0.14420  -0.0315  0.0560  1.0000  -2.0438   0.0000   0.0000   0.0000   0.2877
  12.300   0.6954   0.14988   0.14568  -0.0333  0.0547  1.0000  -1.9956   0.0000   0.0000   0.0000   0.2904
  12.400   0.6950   0.15145   0.14724  -0.0347  0.0533  1.0000  -1.9619   0.0000   0.0000   0.0000   0.2923
  12.500   0.6954   0.15303   0.14881  -0.0357  0.0519  1.0000  -1.9400   0.0000   0.0000   0.0000   0.2936
  12.600   0.6964   0.15458   0.15035  -0.0365  0.0504  1.0000  -1.9261   0.0000   0.0000   0.0000   0.2947
  12.700   0.6976   0.15610   0.15187  -0.0372  0.0492  1.0000  -1.9177   0.0000   0.0000   0.0000   0.2954
  12.800   0.6991   0.15760   0.15337  -0.0378  0.0481  1.0000  -1.9124   0.0000   0.0000   0.0000   0.2961
  12.900   0.7006   0.15911   0.15487  -0.0383  0.0472  1.0000  -1.9077   0.0000   0.0000   0.0000   0.2966
  13.000   0.7023   0.16063   0.15639  -0.0388  0.0465  1.0000  -1.9033   0.0000   0.0000   0.0000   0.2971
  13.100   0.7041   0.16213   0.15789  -0.0393  0.0458  1.0000  -1.9012   0.0000   0.0000   0.0000   0.2976
  13.200   0.7061   0.16362   0.15937  -0.0397  0.0452  1.0000  -1.9014   0.0000   0.0000   0.0000   0.2979
  13.300   0.7083   0.16509   0.16085  -0.0401  0.0445  1.0000  -1.9044   0.0000   0.0000   0.0000   0.2982
  13.400   0.7107   0.16656   0.16232  -0.0404  0.0440  1.0000  -1.9198   0.0000   0.0000   0.0000   0.2983
  13.500   0.7134   0.16803   0.16379  -0.0407  0.0434  1.0000  -1.9425   0.0000   0.0000   0.0000   0.2984
  13.600   0.7164   0.16952   0.16535  -0.0408  0.0429  1.0000  -1.9666   0.0000   0.0000   0.0000   0.2982
  13.700   0.7200   0.17105   0.16688  -0.0408  0.0423  1.0000  -2.0004   0.0000   0.0000   0.0000   0.2979
  13.800   0.7244   0.17268   0.16852  -0.0406  0.0418  1.0000  -2.0456   0.0000   0.0000   0.0000   0.2971
  13.900   0.7290   0.17439   0.17023  -0.0402  0.0413  1.0000  -2.0974   0.0000   0.0000   0.0000   0.2961
  14.000   0.7329   0.17631   0.17216  -0.0397  0.0408  1.0000  -2.1457   0.0000   0.0000   0.0000   0.2951
  14.100   0.7356   0.17901   0.17486  -0.0393  0.0402  1.0000  -2.1792   0.0000   0.0000   0.0000   0.2942
  14.200   0.7299   0.18535   0.18115  -0.0399  0.0392  1.0000  -2.0810   0.0000   0.0000   0.0000   0.2955
  14.300   0.7318   0.18711   0.18290  -0.0407  0.0392  1.0000  -2.0747   0.0000   0.0000   0.0000   0.2964
  14.400   0.7337   0.18885   0.18464  -0.0415  0.0392  1.0000  -2.0686   0.0000   0.0000   0.0000   0.2972
  14.500   0.7356   0.19058   0.18637  -0.0423  0.0392  1.0000  -2.0628   0.0000   0.0000   0.0000   0.2980
  14.600   0.7376   0.19230   0.18808  -0.0430  0.0392  1.0000  -2.0571   0.0000   0.0000   0.0000   0.2988
  14.700   0.7396   0.19400   0.18977  -0.0438  0.0391  1.0000  -2.0516   0.0000   0.0000   0.0000   0.2996
  14.800   0.7417   0.19568   0.19145  -0.0446  0.0391  1.0000  -2.0463   0.0000   0.0000   0.0000   0.3005
  14.900   0.7438   0.19734   0.19311  -0.0454  0.0391  1.0000  -2.0410   0.0000   0.0000   0.0000   0.3013
  15.000   0.7459   0.19899   0.19475  -0.0462  0.0391  1.0000  -2.0359   0.0000   0.0000   0.0000   0.3021


