xflr5 v6.61

 Calculated polar for: NACA 0008

 1 1 Reynolds number fixed          Mach number fixed         

 xtrf =   1.000 (top)        1.000 (bottom)
 Mach =   0.000     Re =     0.500 e 6     Ncrit =   9.000

  alpha     CL        CD       CDp       Cm    Top Xtr Bot Xtr   Cpmin    Chinge    XCp    
 ------- -------- --------- --------- -------- ------- ------- -------- --------- ---------
 -13.000  -0.3277   0.06632   0.06437  -0.0107  1.0000  0.0194  -1.5577   0.0000   0.0000   0.0000   0.2163
 -12.900  -0.3268   0.06476   0.06281  -0.0114  1.0000  0.0192  -1.5965   0.0000   0.0000   0.0000   0.2139
 -12.800  -0.3261   0.06323   0.06128  -0.0122  1.0000  0.0191  -1.6335   0.0000   0.0000   0.0000   0.2115
 -12.700  -0.3252   0.06174   0.05980  -0.0130  1.0000  0.0193  -1.6664   0.0000   0.0000   0.0000   0.2090
 -12.600  -0.3244   0.06027   0.05834  -0.0138  1.0000  0.0195  -1.6974   0.0000   0.0000   0.0000   0.2065
 -12.500  -0.3238   0.05878   0.05685  -0.0145  1.0000  0.0197  -1.7310   0.0000   0.0000   0.0000   0.2040
 -12.400  -0.3233   0.05725   0.05532  -0.0154  1.0000  0.0198  -1.7684   0.0000   0.0000   0.0000   0.2013
 -12.300  -0.3232   0.05567   0.05374  -0.0162  1.0000  0.0199  -1.8110   0.0000   0.0000   0.0000   0.1987
 -12.200  -0.3235   0.05402   0.05210  -0.0171  1.0000  0.0199  -1.8598   0.0000   0.0000   0.0000   0.1959
 -12.100  -0.3241   0.05229   0.05038  -0.0181  1.0000  0.0199  -1.9160   0.0000   0.0000   0.0000   0.1930
 -12.000  -0.3253   0.05049   0.04858  -0.0191  1.0000  0.0198  -1.9809   0.0000   0.0000   0.0000   0.1899
 -11.900  -0.4295   0.02663   0.02468  -0.0376  1.0000  0.0138  -4.2193   0.0000   0.0000   0.0000   0.1573
 -11.800  -0.4381   0.02440   0.02240  -0.0399  1.0000  0.0135  -4.3412   0.0000   0.0000   0.0000   0.1538
 -11.700  -0.4447   0.02261   0.02057  -0.0417  1.0000  0.0134  -4.4222   0.0000   0.0000   0.0000   0.1509
 -11.600  -0.4507   0.02103   0.01895  -0.0434  1.0000  0.0133  -4.4866   0.0000   0.0000   0.0000   0.1485
 -11.500  -0.4565   0.01960   0.01747  -0.0449  1.0000  0.0132  -4.5416   0.0000   0.0000   0.0000   0.1464
 -11.400  -0.4621   0.01826   0.01610  -0.0463  1.0000  0.0132  -4.5903   0.0000   0.0000   0.0000   0.1445
 -11.300  -0.4678   0.01702   0.01481  -0.0476  1.0000  0.0131  -4.6345   0.0000   0.0000   0.0000   0.1430
 -11.200  -0.4735   0.01586   0.01360  -0.0488  1.0000  0.0131  -4.6752   0.0000   0.0000   0.0000   0.1417
 -11.100  -0.4793   0.01476   0.01246  -0.0499  1.0000  0.0130  -4.7132   0.0000   0.0000   0.0000   0.1406
 -11.000  -0.4852   0.01373   0.01138  -0.0510  1.0000  0.0130  -4.7489   0.0000   0.0000   0.0000   0.1398
 -10.900  -0.4911   0.01275   0.01036  -0.0519  1.0000  0.0130  -4.7827   0.0000   0.0000   0.0000   0.1393
 -10.800  -0.4972   0.01183   0.00940  -0.0527  1.0000  0.0130  -4.8149   0.0000   0.0000   0.0000   0.1391
 -10.700  -0.5034   0.01096   0.00848  -0.0533  1.0000  0.0129  -4.8456   0.0000   0.0000   0.0000   0.1390
 -10.600  -0.5097   0.01014   0.00761  -0.0539  1.0000  0.0129  -4.8749   0.0000   0.0000   0.0000   0.1393
 -10.500  -0.5161   0.00937   0.00678  -0.0544  1.0000  0.0129  -4.9031   0.0000   0.0000   0.0000   0.1398
 -10.400  -0.7748   0.08443   0.08232   0.0082  1.0000  0.0117  -4.4129   0.0000   0.0000   0.0000   0.2530
 -10.300  -0.8238   0.06480   0.06262  -0.0080  1.0000  0.0108  -5.3806   0.0000   0.0000   0.0000   0.2324
 -10.200  -0.8355   0.06039   0.05812  -0.0128  1.0000  0.0107  -5.5182   0.0000   0.0000   0.0000   0.2269
 -10.100  -0.8463   0.05730   0.05496  -0.0155  1.0000  0.0107  -5.6164   0.0000   0.0000   0.0000   0.2241
 -10.000  -0.8569   0.05481   0.05238  -0.0167  1.0000  0.0106  -5.7028   0.0000   0.0000   0.0000   0.2230
  -9.900  -0.8674   0.05260   0.05009  -0.0168  1.0000  0.0106  -5.7873   0.0000   0.0000   0.0000   0.2232
  -9.800  -0.8771   0.05027   0.04765  -0.0167  1.0000  0.0105  -5.8832   0.0000   0.0000   0.0000   0.2236
  -9.700  -0.8854   0.04770   0.04494  -0.0167  1.0000  0.0105  -5.9912   0.0000   0.0000   0.0000   0.2239
  -9.600  -0.8923   0.04514   0.04223  -0.0164  1.0000  0.0104  -6.0983   0.0000   0.0000   0.0000   0.2244
  -9.500  -0.8976   0.04268   0.03960  -0.0160  1.0000  0.0104  -6.1969   0.0000   0.0000   0.0000   0.2250
  -9.400  -0.9009   0.04038   0.03714  -0.0155  1.0000  0.0105  -6.2801   0.0000   0.0000   0.0000   0.2257
  -9.300  -0.9025   0.03829   0.03487  -0.0149  1.0000  0.0105  -6.3446   0.0000   0.0000   0.0000   0.2264
  -9.200  -0.9022   0.03642   0.03283  -0.0143  1.0000  0.0106  -6.3888   0.0000   0.0000   0.0000   0.2271
  -9.100  -0.9004   0.03477   0.03103  -0.0138  1.0000  0.0107  -6.4112   0.0000   0.0000   0.0000   0.2278
  -9.000  -0.8971   0.03334   0.02946  -0.0132  1.0000  0.0109  -6.4119   0.0000   0.0000   0.0000   0.2284
  -8.900  -0.8927   0.03212   0.02810  -0.0127  1.0000  0.0111  -6.3917   0.0000   0.0000   0.0000   0.2290
  -8.800  -0.8873   0.03107   0.02693  -0.0122  1.0000  0.0112  -6.3521   0.0000   0.0000   0.0000   0.2295
  -8.700  -0.8810   0.03019   0.02594  -0.0118  1.0000  0.0114  -6.2946   0.0000   0.0000   0.0000   0.2300
  -8.600  -0.8739   0.02945   0.02511  -0.0114  1.0000  0.0116  -6.2207   0.0000   0.0000   0.0000   0.2304
  -8.500  -0.8662   0.02887   0.02445  -0.0111  1.0000  0.0117  -6.1311   0.0000   0.0000   0.0000   0.2308
  -8.400  -0.8579   0.02843   0.02394  -0.0108  1.0000  0.0119  -6.0269   0.0000   0.0000   0.0000   0.2311
  -8.300  -0.8490   0.02815   0.02360  -0.0106  1.0000  0.0120  -5.9073   0.0000   0.0000   0.0000   0.2314
  -8.200  -0.8434   0.02692   0.02223  -0.0100  1.0000  0.0121  -5.8727   0.0000   0.0000   0.0000   0.2320
  -8.100  -0.8439   0.02371   0.01865  -0.0088  1.0000  0.0124  -6.0146   0.0000   0.0000   0.0000   0.2334
  -8.000  -0.8410   0.02136   0.01601  -0.0079  1.0000  0.0128  -6.0825   0.0000   0.0000   0.0000   0.2346
  -7.900  -0.8357   0.01976   0.01421  -0.0071  1.0000  0.0133  -6.0847   0.0000   0.0000   0.0000   0.2355
  -7.800  -0.8287   0.01870   0.01304  -0.0065  1.0000  0.0139  -6.0350   0.0000   0.0000   0.0000   0.2362
  -7.700  -0.8201   0.01817   0.01246  -0.0062  1.0000  0.0146  -5.9287   0.0000   0.0000   0.0000   0.2366
  -7.600  -0.8104   0.01798   0.01227  -0.0060  1.0000  0.0153  -5.7862   0.0000   0.0000   0.0000   0.2368
  -7.500  -0.8003   0.01789   0.01219  -0.0059  1.0000  0.0159  -5.6356   0.0000   0.0000   0.0000   0.2369
  -7.400  -0.7903   0.01778   0.01207  -0.0058  1.0000  0.0166  -5.4924   0.0000   0.0000   0.0000   0.2371
  -7.300  -0.7805   0.01758   0.01185  -0.0056  1.0000  0.0174  -5.3621   0.0000   0.0000   0.0000   0.2374
  -7.200  -0.7709   0.01728   0.01151  -0.0054  1.0000  0.0182  -5.2446   0.0000   0.0000   0.0000   0.2377
  -7.100  -0.7614   0.01690   0.01103  -0.0051  1.0000  0.0189  -5.1329   0.0000   0.0000   0.0000   0.2381
  -7.000  -0.7519   0.01655   0.01063  -0.0048  1.0000  0.0198  -5.0241   0.0000   0.0000   0.0000   0.2385
  -6.900  -0.7422   0.01624   0.01028  -0.0045  1.0000  0.0206  -4.9110   0.0000   0.0000   0.0000   0.2389
  -6.800  -0.7323   0.01599   0.00999  -0.0043  1.0000  0.0214  -4.7915   0.0000   0.0000   0.0000   0.2392
  -6.700  -0.7222   0.01583   0.00980  -0.0041  1.0000  0.0220  -4.6645   0.0000   0.0000   0.0000   0.2395
  -6.600  -0.7119   0.01575   0.00971  -0.0039  1.0000  0.0226  -4.5303   0.0000   0.0000   0.0000   0.2397
  -6.500  -0.7013   0.01575   0.00970  -0.0038  1.0000  0.0230  -4.3905   0.0000   0.0000   0.0000   0.2398
  -6.400  -0.6905   0.01583   0.00977  -0.0037  1.0000  0.0233  -4.2472   0.0000   0.0000   0.0000   0.2400
  -6.300  -0.6866   0.01390   0.00766  -0.0025  1.0000  0.0266  -4.2639   0.0000   0.0000   0.0000   0.2417
  -6.200  -0.6774   0.01354   0.00731  -0.0022  1.0000  0.0287  -4.1507   0.0000   0.0000   0.0000   0.2422
  -6.100  -0.6673   0.01345   0.00722  -0.0021  1.0000  0.0304  -4.0151   0.0000   0.0000   0.0000   0.2424
  -6.000  -0.6570   0.01337   0.00715  -0.0020  1.0000  0.0321  -3.8814   0.0000   0.0000   0.0000   0.2426
  -5.900  -0.6468   0.01328   0.00704  -0.0018  1.0000  0.0337  -3.7525   0.0000   0.0000   0.0000   0.2429
  -5.800  -0.6367   0.01316   0.00692  -0.0017  1.0000  0.0351  -3.6274   0.0000   0.0000   0.0000   0.2432
  -5.700  -0.6266   0.01304   0.00677  -0.0015  1.0000  0.0362  -3.5048   0.0000   0.0000   0.0000   0.2436
  -5.600  -0.6166   0.01291   0.00662  -0.0012  1.0000  0.0370  -3.3845   0.0000   0.0000   0.0000   0.2439
  -5.500  -0.6065   0.01278   0.00647  -0.0010  1.0000  0.0376  -3.2655   0.0000   0.0000   0.0000   0.2443
  -5.400  -0.5965   0.01265   0.00632  -0.0008  1.0000  0.0381  -3.1568   0.0000   0.0000   0.0000   0.2447
  -5.300  -0.5865   0.01253   0.00618  -0.0006  1.0000  0.0385  -3.0587   0.0000   0.0000   0.0000   0.2452
  -5.200  -0.5765   0.01241   0.00604  -0.0004  1.0000  0.0388  -2.9616   0.0000   0.0000   0.0000   0.2456
  -5.100  -0.5664   0.01234   0.00596  -0.0002  1.0000  0.0390  -2.8615   0.0000   0.0000   0.0000   0.2460
  -5.000  -0.5565   0.01222   0.00580   0.0001  1.0000  0.0394  -2.7637   0.0000   0.0000   0.0000   0.2465
  -4.900  -0.5483   0.01168   0.00519   0.0006  1.0000  0.0408  -2.6967   0.0000   0.0000   0.0000   0.2476
  -4.800  -0.5395   0.01131   0.00476   0.0011  1.0000  0.0421  -2.6219   0.0000   0.0000   0.0000   0.2485
  -4.700  -0.5303   0.01102   0.00443   0.0015  1.0000  0.0434  -2.5435   0.0000   0.0000   0.0000   0.2493
  -4.600  -0.5210   0.01077   0.00414   0.0018  1.0000  0.0451  -2.4635   0.0000   0.0000   0.0000   0.2502
  -4.500  -0.5114   0.01055   0.00391   0.0022  1.0000  0.0472  -2.3819   0.0000   0.0000   0.0000   0.2510
  -4.400  -0.5018   0.01036   0.00372   0.0025  1.0000  0.0493  -2.2994   0.0000   0.0000   0.0000   0.2518
  -4.300  -0.4922   0.01019   0.00354   0.0028  1.0000  0.0516  -2.2172   0.0000   0.0000   0.0000   0.2525
  -4.200  -0.4824   0.01003   0.00338   0.0031  1.0000  0.0542  -2.1346   0.0000   0.0000   0.0000   0.2533
  -4.100  -0.4726   0.00990   0.00323   0.0034  1.0000  0.0567  -2.0514   0.0000   0.0000   0.0000   0.2541
  -4.000  -0.4626   0.00981   0.00312   0.0036  1.0000  0.0584  -1.9673   0.0000   0.0000   0.0000   0.2548
  -3.900  -0.4531   0.00957   0.00291   0.0040  1.0000  0.0681  -1.8998   0.0000   0.0000   0.0000   0.2558
  -3.800  -0.4435   0.00938   0.00278   0.0043  1.0000  0.0780  -1.8344   0.0000   0.0000   0.0000   0.2567
  -3.700  -0.4342   0.00915   0.00265   0.0045  1.0000  0.0987  -1.7703   0.0000   0.0000   0.0000   0.2576
  -3.600  -0.4249   0.00890   0.00253   0.0048  1.0000  0.1258  -1.7054   0.0000   0.0000   0.0000   0.2585
  -3.500  -0.4156   0.00865   0.00242   0.0051  1.0000  0.1561  -1.6400   0.0000   0.0000   0.0000   0.2594
  -3.400  -0.4062   0.00844   0.00231   0.0053  1.0000  0.1848  -1.5730   0.0000   0.0000   0.0000   0.2603
  -3.300  -0.3966   0.00825   0.00223   0.0055  1.0000  0.2120  -1.5087   0.0000   0.0000   0.0000   0.2612
  -3.100  -0.3774   0.00789   0.00210   0.0059  1.0000  0.2660  -1.4244   0.0000   0.0000   0.0000   0.2631
  -3.000  -0.3677   0.00772   0.00204   0.0061  1.0000  0.2933  -1.3822   0.0000   0.0000   0.0000   0.2641
  -2.900  -0.3580   0.00756   0.00199   0.0063  1.0000  0.3204  -1.3400   0.0000   0.0000   0.0000   0.2652
  -2.800  -0.3482   0.00742   0.00194   0.0065  1.0000  0.3473  -1.2979   0.0000   0.0000   0.0000   0.2662
  -2.700  -0.3384   0.00727   0.00190   0.0067  1.0000  0.3737  -1.2559   0.0000   0.0000   0.0000   0.2674
  -2.600  -0.3285   0.00714   0.00186   0.0069  1.0000  0.3997  -1.2141   0.0000   0.0000   0.0000   0.2685
  -2.500  -0.3186   0.00701   0.00182   0.0070  1.0000  0.4253  -1.1725   0.0000   0.0000   0.0000   0.2698
  -2.400  -0.3086   0.00687   0.00179   0.0072  1.0000  0.4521  -1.1312   0.0000   0.0000   0.0000   0.2711
  -2.300  -0.2987   0.00674   0.00177   0.0074  1.0000  0.4796  -1.0901   0.0000   0.0000   0.0000   0.2725
  -2.200  -0.2887   0.00663   0.00175   0.0075  1.0000  0.5050  -1.0493   0.0000   0.0000   0.0000   0.2740
  -2.100  -0.2786   0.00652   0.00172   0.0077  1.0000  0.5299  -1.0091   0.0000   0.0000   0.0000   0.2755
  -2.000  -0.2686   0.00640   0.00171   0.0079  1.0000  0.5578  -0.9688   0.0000   0.0000   0.0000   0.2772
  -1.800  -0.2485   0.00615   0.00170   0.0082  1.0000  0.6182  -0.8893   0.0000   0.0000   0.0000   0.2811
  -1.700  -0.2384   0.00604   0.00171   0.0084  1.0000  0.6483  -0.8500   0.0000   0.0000   0.0000   0.2834
  -1.600  -0.2282   0.00594   0.00172   0.0086  1.0000  0.6767  -0.8108   0.0000   0.0000   0.0000   0.2858
  -1.500  -0.2147   0.00580   0.00172   0.0081  0.9986  0.7095  -0.7658   0.0000   0.0000   0.0000   0.2858
  -1.400  -0.2001   0.00567   0.00173   0.0074  0.9966  0.7428  -0.7194   0.0000   0.0000   0.0000   0.2851
  -1.300  -0.1853   0.00558   0.00174   0.0067  0.9945  0.7718  -0.6730   0.0000   0.0000   0.0000   0.2841
  -1.200  -0.1701   0.00550   0.00175   0.0059  0.9926  0.7940  -0.6266   0.0000   0.0000   0.0000   0.2826
  -1.100  -0.1547   0.00544   0.00177   0.0050  0.9910  0.8128  -0.5803   0.0000   0.0000   0.0000   0.2806
  -1.000  -0.1417   0.00537   0.00176   0.0048  0.9881  0.8336  -0.5448   0.0000   0.0000   0.0000   0.2818
  -0.900  -0.1282   0.00532   0.00178   0.0044  0.9851  0.8547  -0.5133   0.0000   0.0000   0.0000   0.2828
  -0.800  -0.1140   0.00528   0.00180   0.0039  0.9824  0.8734  -0.4812   0.0000   0.0000   0.0000   0.2829
  -0.700  -0.0991   0.00526   0.00181   0.0033  0.9800  0.8896  -0.4487   0.0000   0.0000   0.0000   0.2817
  -0.600  -0.0838   0.00524   0.00183   0.0026  0.9778  0.9025  -0.4160   0.0000   0.0000   0.0000   0.2793
  -0.500  -0.0682   0.00523   0.00184   0.0018  0.9755  0.9125  -0.3833   0.0000   0.0000   0.0000   0.2740
  -0.400  -0.0560   0.00522   0.00185   0.0018  0.9707  0.9222  -0.3578   0.0000   0.0000   0.0000   0.2796
  -0.300  -0.0433   0.00521   0.00185   0.0016  0.9656  0.9314  -0.3397   0.0000   0.0000   0.0000   0.2851
  -0.200  -0.0284   0.00521   0.00185   0.0010  0.9613  0.9380  -0.3198   0.0000   0.0000   0.0000   0.2824
  -0.100  -0.0127   0.00521   0.00186   0.0001  0.9574  0.9444  -0.2994   0.0000   0.0000   0.0000   0.2597
   0.000  -0.0000   0.00521   0.00186   0.0000  0.9515  0.9515  -0.2817   0.0000   0.0000   0.0000   0.5788
   0.100   0.0127   0.00521   0.00186  -0.0001  0.9444  0.9574  -0.2994   0.0000   0.0000   0.0000   0.2597
   0.200   0.0284   0.00521   0.00185  -0.0010  0.9381  0.9613  -0.3198   0.0000   0.0000   0.0000   0.2824
   0.300   0.0433   0.00521   0.00185  -0.0016  0.9314  0.9656  -0.3397   0.0000   0.0000   0.0000   0.2851
   0.400   0.0560   0.00522   0.00185  -0.0018  0.9222  0.9707  -0.3578   0.0000   0.0000   0.0000   0.2796
   0.500   0.0682   0.00523   0.00184  -0.0018  0.9125  0.9755  -0.3833   0.0000   0.0000   0.0000   0.2740
   0.600   0.0838   0.00524   0.00183  -0.0026  0.9025  0.9778  -0.4160   0.0000   0.0000   0.0000   0.2793
   0.700   0.0991   0.00525   0.00181  -0.0033  0.8896  0.9800  -0.4487   0.0000   0.0000   0.0000   0.2817
   0.800   0.1140   0.00528   0.00180  -0.0039  0.8734  0.9824  -0.4812   0.0000   0.0000   0.0000   0.2829
   0.900   0.1282   0.00532   0.00178  -0.0044  0.8547  0.9852  -0.5133   0.0000   0.0000   0.0000   0.2828
   1.000   0.1417   0.00537   0.00176  -0.0048  0.8336  0.9881  -0.5448   0.0000   0.0000   0.0000   0.2818
   1.100   0.1546   0.00544   0.00177  -0.0050  0.8128  0.9910  -0.5803   0.0000   0.0000   0.0000   0.2806
   1.200   0.1701   0.00550   0.00175  -0.0059  0.7940  0.9927  -0.6266   0.0000   0.0000   0.0000   0.2826
   1.300   0.1853   0.00558   0.00174  -0.0067  0.7718  0.9945  -0.6730   0.0000   0.0000   0.0000   0.2841
   1.400   0.2001   0.00567   0.00173  -0.0074  0.7428  0.9966  -0.7194   0.0000   0.0000   0.0000   0.2851
   1.500   0.2147   0.00580   0.00172  -0.0081  0.7095  0.9986  -0.7658   0.0000   0.0000   0.0000   0.2858
   1.600   0.2282   0.00594   0.00172  -0.0086  0.6768  1.0000  -0.8107   0.0000   0.0000   0.0000   0.2857
   1.700   0.2384   0.00603   0.00171  -0.0084  0.6483  1.0000  -0.8499   0.0000   0.0000   0.0000   0.2833
   1.800   0.2485   0.00615   0.00170  -0.0082  0.6182  1.0000  -0.8892   0.0000   0.0000   0.0000   0.2811
   1.900   0.2585   0.00628   0.00170  -0.0080  0.5876  1.0000  -0.9287   0.0000   0.0000   0.0000   0.2790
   2.000   0.2685   0.00640   0.00171  -0.0078  0.5579  1.0000  -0.9687   0.0000   0.0000   0.0000   0.2772
   2.100   0.2786   0.00652   0.00172  -0.0077  0.5299  1.0000  -1.0090   0.0000   0.0000   0.0000   0.2755
   2.200   0.2886   0.00662   0.00175  -0.0075  0.5050  1.0000  -1.0492   0.0000   0.0000   0.0000   0.2739
   2.300   0.2986   0.00674   0.00177  -0.0074  0.4797  1.0000  -1.0900   0.0000   0.0000   0.0000   0.2725
   2.400   0.3086   0.00687   0.00179  -0.0072  0.4522  1.0000  -1.1311   0.0000   0.0000   0.0000   0.2711
   2.500   0.3185   0.00701   0.00182  -0.0070  0.4253  1.0000  -1.1724   0.0000   0.0000   0.0000   0.2698
   2.600   0.3284   0.00714   0.00186  -0.0068  0.3997  1.0000  -1.2140   0.0000   0.0000   0.0000   0.2685
   2.700   0.3383   0.00727   0.00189  -0.0067  0.3738  1.0000  -1.2558   0.0000   0.0000   0.0000   0.2673
   2.800   0.3481   0.00741   0.00194  -0.0065  0.3473  1.0000  -1.2978   0.0000   0.0000   0.0000   0.2662
   2.900   0.3579   0.00756   0.00198  -0.0063  0.3205  1.0000  -1.3399   0.0000   0.0000   0.0000   0.2651
   3.000   0.3677   0.00772   0.00204  -0.0061  0.2934  1.0000  -1.3821   0.0000   0.0000   0.0000   0.2641
   3.100   0.3773   0.00789   0.00210  -0.0059  0.2661  1.0000  -1.4243   0.0000   0.0000   0.0000   0.2631
   3.300   0.3966   0.00825   0.00223  -0.0055  0.2121  1.0000  -1.5086   0.0000   0.0000   0.0000   0.2612
   3.400   0.4061   0.00844   0.00231  -0.0053  0.1849  1.0000  -1.5728   0.0000   0.0000   0.0000   0.2603
   3.500   0.4155   0.00865   0.00242  -0.0050  0.1562  1.0000  -1.6399   0.0000   0.0000   0.0000   0.2594
   3.600   0.4248   0.00890   0.00253  -0.0048  0.1259  1.0000  -1.7052   0.0000   0.0000   0.0000   0.2585
   3.700   0.4341   0.00915   0.00265  -0.0045  0.0987  1.0000  -1.7701   0.0000   0.0000   0.0000   0.2576
   3.800   0.4435   0.00938   0.00278  -0.0043  0.0780  1.0000  -1.8342   0.0000   0.0000   0.0000   0.2567
   3.900   0.4531   0.00956   0.00290  -0.0040  0.0681  1.0000  -1.8997   0.0000   0.0000   0.0000   0.2558
   4.000   0.4626   0.00981   0.00312  -0.0036  0.0585  1.0000  -1.9671   0.0000   0.0000   0.0000   0.2548
   4.100   0.4725   0.00990   0.00323  -0.0034  0.0567  1.0000  -2.0512   0.0000   0.0000   0.0000   0.2541
   4.200   0.4824   0.01003   0.00337  -0.0031  0.0542  1.0000  -2.1344   0.0000   0.0000   0.0000   0.2533
   4.300   0.4921   0.01019   0.00354  -0.0028  0.0516  1.0000  -2.2170   0.0000   0.0000   0.0000   0.2525
   4.400   0.5018   0.01036   0.00372  -0.0025  0.0493  1.0000  -2.2992   0.0000   0.0000   0.0000   0.2517
   4.500   0.5114   0.01055   0.00391  -0.0022  0.0472  1.0000  -2.3817   0.0000   0.0000   0.0000   0.2510
   4.600   0.5209   0.01077   0.00414  -0.0018  0.0451  1.0000  -2.4634   0.0000   0.0000   0.0000   0.2502
   4.700   0.5302   0.01102   0.00443  -0.0015  0.0434  1.0000  -2.5433   0.0000   0.0000   0.0000   0.2493
   4.800   0.5394   0.01131   0.00476  -0.0011  0.0421  1.0000  -2.6217   0.0000   0.0000   0.0000   0.2485
   4.900   0.5483   0.01168   0.00519  -0.0006  0.0408  1.0000  -2.6966   0.0000   0.0000   0.0000   0.2476
   5.000   0.5565   0.01221   0.00580  -0.0001  0.0394  1.0000  -2.7635   0.0000   0.0000   0.0000   0.2465
   5.100   0.5664   0.01234   0.00596   0.0002  0.0390  1.0000  -2.8613   0.0000   0.0000   0.0000   0.2460
   5.200   0.5765   0.01241   0.00604   0.0004  0.0388  1.0000  -2.9614   0.0000   0.0000   0.0000   0.2456
   5.300   0.5865   0.01253   0.00618   0.0006  0.0385  1.0000  -3.0586   0.0000   0.0000   0.0000   0.2452
   5.400   0.5965   0.01265   0.00632   0.0008  0.0381  1.0000  -3.1567   0.0000   0.0000   0.0000   0.2447
   5.500   0.6065   0.01278   0.00647   0.0010  0.0376  1.0000  -3.2654   0.0000   0.0000   0.0000   0.2443
   5.600   0.6165   0.01291   0.00662   0.0013  0.0370  1.0000  -3.3844   0.0000   0.0000   0.0000   0.2439
   5.700   0.6266   0.01304   0.00677   0.0015  0.0362  1.0000  -3.5047   0.0000   0.0000   0.0000   0.2436
   5.800   0.6367   0.01316   0.00691   0.0017  0.0351  1.0000  -3.6273   0.0000   0.0000   0.0000   0.2432
   5.900   0.6468   0.01328   0.00704   0.0018  0.0337  1.0000  -3.7525   0.0000   0.0000   0.0000   0.2429
   6.000   0.6570   0.01337   0.00715   0.0020  0.0321  1.0000  -3.8814   0.0000   0.0000   0.0000   0.2426
   6.100   0.6672   0.01345   0.00722   0.0021  0.0304  1.0000  -4.0150   0.0000   0.0000   0.0000   0.2424
   6.200   0.6774   0.01354   0.00731   0.0022  0.0287  1.0000  -4.1506   0.0000   0.0000   0.0000   0.2422
   6.300   0.6866   0.01390   0.00766   0.0025  0.0266  1.0000  -4.2639   0.0000   0.0000   0.0000   0.2417
   6.400   0.6905   0.01583   0.00976   0.0037  0.0233  1.0000  -4.2473   0.0000   0.0000   0.0000   0.2400
   6.500   0.7013   0.01575   0.00970   0.0038  0.0230  1.0000  -4.3906   0.0000   0.0000   0.0000   0.2398
   6.600   0.7119   0.01575   0.00970   0.0039  0.0226  1.0000  -4.5304   0.0000   0.0000   0.0000   0.2397
   6.700   0.7222   0.01583   0.00980   0.0041  0.0220  1.0000  -4.6646   0.0000   0.0000   0.0000   0.2395
   6.800   0.7323   0.01599   0.00999   0.0043  0.0214  1.0000  -4.7916   0.0000   0.0000   0.0000   0.2392
   6.900   0.7422   0.01624   0.01028   0.0045  0.0206  1.0000  -4.9111   0.0000   0.0000   0.0000   0.2389
   7.000   0.7519   0.01655   0.01063   0.0048  0.0198  1.0000  -5.0242   0.0000   0.0000   0.0000   0.2385
   7.100   0.7614   0.01690   0.01103   0.0051  0.0189  1.0000  -5.1330   0.0000   0.0000   0.0000   0.2381
   7.200   0.7709   0.01728   0.01151   0.0054  0.0182  1.0000  -5.2447   0.0000   0.0000   0.0000   0.2377
   7.300   0.7805   0.01758   0.01185   0.0056  0.0174  1.0000  -5.3623   0.0000   0.0000   0.0000   0.2374
   7.400   0.7904   0.01778   0.01207   0.0058  0.0166  1.0000  -5.4926   0.0000   0.0000   0.0000   0.2371
   7.500   0.8004   0.01789   0.01219   0.0059  0.0159  1.0000  -5.6359   0.0000   0.0000   0.0000   0.2370
   7.600   0.8104   0.01798   0.01227   0.0060  0.0153  1.0000  -5.7865   0.0000   0.0000   0.0000   0.2368
   7.700   0.8201   0.01817   0.01246   0.0062  0.0146  1.0000  -5.9290   0.0000   0.0000   0.0000   0.2366
   7.800   0.8287   0.01870   0.01304   0.0065  0.0139  1.0000  -6.0352   0.0000   0.0000   0.0000   0.2362
   7.900   0.8357   0.01976   0.01422   0.0071  0.0133  1.0000  -6.0848   0.0000   0.0000   0.0000   0.2355
   8.000   0.8411   0.02137   0.01602   0.0079  0.0128  1.0000  -6.0824   0.0000   0.0000   0.0000   0.2346
   8.100   0.8440   0.02372   0.01866   0.0088  0.0124  1.0000  -6.0143   0.0000   0.0000   0.0000   0.2334
   8.200   0.8434   0.02693   0.02225   0.0100  0.0121  1.0000  -5.8720   0.0000   0.0000   0.0000   0.2320
   8.300   0.8491   0.02815   0.02360   0.0105  0.0120  1.0000  -5.9080   0.0000   0.0000   0.0000   0.2314
   8.400   0.8580   0.02843   0.02394   0.0108  0.0119  1.0000  -6.0276   0.0000   0.0000   0.0000   0.2311
   8.500   0.8663   0.02887   0.02445   0.0111  0.0117  1.0000  -6.1317   0.0000   0.0000   0.0000   0.2308
   8.600   0.8740   0.02946   0.02512   0.0114  0.0116  1.0000  -6.2213   0.0000   0.0000   0.0000   0.2305
   8.700   0.8811   0.03019   0.02594   0.0118  0.0114  1.0000  -6.2952   0.0000   0.0000   0.0000   0.2301
   8.800   0.8874   0.03108   0.02694   0.0122  0.0112  1.0000  -6.3526   0.0000   0.0000   0.0000   0.2296
   8.900   0.8928   0.03212   0.02811   0.0127  0.0111  1.0000  -6.3921   0.0000   0.0000   0.0000   0.2291
   9.000   0.8973   0.03335   0.02947   0.0132  0.0109  1.0000  -6.4122   0.0000   0.0000   0.0000   0.2285
   9.100   0.9005   0.03478   0.03104   0.0137  0.0107  1.0000  -6.4113   0.0000   0.0000   0.0000   0.2279
   9.200   0.9024   0.03643   0.03285   0.0143  0.0106  1.0000  -6.3887   0.0000   0.0000   0.0000   0.2272
   9.300   0.9026   0.03831   0.03490   0.0149  0.0105  1.0000  -6.3442   0.0000   0.0000   0.0000   0.2265
   9.400   0.9011   0.04041   0.03716   0.0154  0.0105  1.0000  -6.2793   0.0000   0.0000   0.0000   0.2258
   9.500   0.8977   0.04271   0.03964   0.0159  0.0104  1.0000  -6.1957   0.0000   0.0000   0.0000   0.2251
   9.600   0.8925   0.04518   0.04227   0.0163  0.0104  1.0000  -6.0965   0.0000   0.0000   0.0000   0.2245
   9.700   0.8856   0.04775   0.04499   0.0166  0.0105  1.0000  -5.9889   0.0000   0.0000   0.0000   0.2240
   9.800   0.8772   0.05034   0.04772   0.0166  0.0105  1.0000  -5.8803   0.0000   0.0000   0.0000   0.2237
   9.900   0.8675   0.05268   0.05017   0.0167  0.0106  1.0000  -5.7839   0.0000   0.0000   0.0000   0.2233
  10.000   0.8571   0.05491   0.05249   0.0165  0.0106  1.0000  -5.6986   0.0000   0.0000   0.0000   0.2232
  10.100   0.8465   0.05743   0.05509   0.0152  0.0107  1.0000  -5.6112   0.0000   0.0000   0.0000   0.2244
  10.200   0.8357   0.06057   0.05831   0.0125  0.0107  1.0000  -5.5113   0.0000   0.0000   0.0000   0.2273
  10.300   0.8239   0.06513   0.06295   0.0075  0.0109  1.0000  -5.3684   0.0000   0.0000   0.0000   0.2330
  10.400   0.7731   0.08526   0.08314  -0.0089  0.0117  1.0000  -4.3631   0.0000   0.0000   0.0000   0.2540
  10.600   0.4931   0.00789   0.00533   0.0561  0.0132  1.0000  -4.8342   0.0000   0.0000   0.0000   0.1316
  10.700   0.7534   0.09574   0.09360  -0.0145  0.0122  1.0000  -3.9760   0.0000   0.0000   0.0000   0.2616
  10.800   0.7520   0.09812   0.09598  -0.0157  0.0123  1.0000  -3.9279   0.0000   0.0000   0.0000   0.2632
  10.900   0.7508   0.10043   0.09828  -0.0169  0.0123  1.0000  -3.8828   0.0000   0.0000   0.0000   0.2647
  11.000   0.7499   0.10267   0.10052  -0.0179  0.0124  1.0000  -3.8407   0.0000   0.0000   0.0000   0.2661
  11.100   0.7492   0.10484   0.10267  -0.0189  0.0124  1.0000  -3.8018   0.0000   0.0000   0.0000   0.2674
  11.200   0.7487   0.10693   0.10476  -0.0199  0.0125  1.0000  -3.7653   0.0000   0.0000   0.0000   0.2686
  11.300   0.7485   0.10899   0.10682  -0.0208  0.0126  1.0000  -3.7292   0.0000   0.0000   0.0000   0.2697
  11.400   0.7484   0.11108   0.10890  -0.0217  0.0128  1.0000  -3.6877   0.0000   0.0000   0.0000   0.2708
  11.500   0.6920   0.13034   0.12804  -0.0275  0.0230  1.0000  -2.3097   0.0000   0.0000   0.0000   0.2823
  11.600   0.6922   0.13233   0.13003  -0.0283  0.0230  1.0000  -2.2803   0.0000   0.0000   0.0000   0.2834
  11.700   0.6924   0.13430   0.13199  -0.0290  0.0230  1.0000  -2.2524   0.0000   0.0000   0.0000   0.2844
  11.800   0.6929   0.13624   0.13393  -0.0298  0.0230  1.0000  -2.2259   0.0000   0.0000   0.0000   0.2854
  11.900   0.6935   0.13816   0.13585  -0.0305  0.0230  1.0000  -2.2008   0.0000   0.0000   0.0000   0.2864
  12.000   0.6942   0.14006   0.13774  -0.0313  0.0229  1.0000  -2.1770   0.0000   0.0000   0.0000   0.2874
  12.100   0.6950   0.14194   0.13962  -0.0320  0.0229  1.0000  -2.1613   0.0000   0.0000   0.0000   0.2883
  12.200   0.6960   0.14379   0.14147  -0.0328  0.0229  1.0000  -2.1516   0.0000   0.0000   0.0000   0.2892
  12.300   0.6971   0.14561   0.14328  -0.0335  0.0228  1.0000  -2.1432   0.0000   0.0000   0.0000   0.2902
  12.400   0.6983   0.14740   0.14507  -0.0343  0.0228  1.0000  -2.1363   0.0000   0.0000   0.0000   0.2911
  12.500   0.6998   0.14915   0.14682  -0.0350  0.0227  1.0000  -2.1310   0.0000   0.0000   0.0000   0.2920
  12.600   0.7014   0.15083   0.14850  -0.0358  0.0227  1.0000  -2.1280   0.0000   0.0000   0.0000   0.2928
  12.700   0.7034   0.15243   0.15010  -0.0365  0.0225  1.0000  -2.1283   0.0000   0.0000   0.0000   0.2937
  12.800   0.7064   0.15382   0.15148  -0.0373  0.0222  1.0000  -2.1361   0.0000   0.0000   0.0000   0.2945
  12.900   0.7103   0.15504   0.15270  -0.0386  0.0213  1.0000  -2.1337   0.0000   0.0000   0.0000   0.2960
  13.000   0.7117   0.15671   0.15437  -0.0398  0.0206  1.0000  -2.1119   0.0000   0.0000   0.0000   0.2975
  13.100   0.7130   0.15842   0.15608  -0.0407  0.0200  1.0000  -2.0982   0.0000   0.0000   0.0000   0.2986
  13.200   0.7143   0.16014   0.15779  -0.0415  0.0195  1.0000  -2.0894   0.0000   0.0000   0.0000   0.2995
  13.300   0.7157   0.16183   0.15948  -0.0423  0.0190  1.0000  -2.0839   0.0000   0.0000   0.0000   0.3004
  13.400   0.7171   0.16352   0.16120  -0.0430  0.0186  1.0000  -2.0769   0.0000   0.0000   0.0000   0.3012
  13.500   0.7185   0.16518   0.16286  -0.0437  0.0182  1.0000  -2.0748   0.0000   0.0000   0.0000   0.3020
  13.600   0.7201   0.16682   0.16450  -0.0444  0.0179  1.0000  -2.0747   0.0000   0.0000   0.0000   0.3027
  13.700   0.7217   0.16845   0.16613  -0.0451  0.0175  1.0000  -2.0764   0.0000   0.0000   0.0000   0.3035
  13.800   0.7234   0.17006   0.16774  -0.0457  0.0172  1.0000  -2.0794   0.0000   0.0000   0.0000   0.3042
  13.900   0.7251   0.17166   0.16934  -0.0464  0.0169  1.0000  -2.0838   0.0000   0.0000   0.0000   0.3048
  14.000   0.7269   0.17324   0.17092  -0.0471  0.0167  1.0000  -2.0894   0.0000   0.0000   0.0000   0.3055
  14.100   0.7288   0.17481   0.17248  -0.0477  0.0164  1.0000  -2.0962   0.0000   0.0000   0.0000   0.3061
  14.200   0.7307   0.17636   0.17403  -0.0484  0.0161  1.0000  -2.1041   0.0000   0.0000   0.0000   0.3067
  14.300   0.7327   0.17789   0.17556  -0.0490  0.0159  1.0000  -2.1138   0.0000   0.0000   0.0000   0.3073
  14.400   0.7348   0.17939   0.17706  -0.0496  0.0156  1.0000  -2.1267   0.0000   0.0000   0.0000   0.3079
  14.500   0.7370   0.18083   0.17850  -0.0502  0.0154  1.0000  -2.1434   0.0000   0.0000   0.0000   0.3084
  14.600   0.7393   0.18223   0.17990  -0.0508  0.0151  1.0000  -2.1647   0.0000   0.0000   0.0000   0.3088
  14.700   0.7418   0.18357   0.18124  -0.0513  0.0148  1.0000  -2.1913   0.0000   0.0000   0.0000   0.3092
  14.800   0.7443   0.18484   0.18251  -0.0518  0.0145  1.0000  -2.2244   0.0000   0.0000   0.0000   0.3095
  14.900   0.7471   0.18604   0.18371  -0.0523  0.0142  1.0000  -2.2653   0.0000   0.0000   0.0000   0.3097
  15.000   0.7500   0.18716   0.18483  -0.0526  0.0140  1.0000  -2.3151   0.0000   0.0000   0.0000   0.3098


