xflr5 v6.61

 Calculated polar for: NACA 0008

 1 1 Reynolds number fixed          Mach number fixed         

 xtrf =   1.000 (top)        1.000 (bottom)
 Mach =   0.000     Re =     0.200 e 6     Ncrit =   9.000

  alpha     CL        CD       CDp       Cm    Top Xtr Bot Xtr   Cpmin    Chinge    XCp    
 ------- -------- --------- --------- -------- ------- ------- -------- --------- ---------
 -13.000  -0.3312   0.07604   0.07296  -0.0099  1.0000  0.0574  -1.2041   0.0000   0.0000   0.0000   0.2195
 -12.900  -0.3314   0.07535   0.07228  -0.0108  1.0000  0.0578  -1.2281   0.0000   0.0000   0.0000   0.2168
 -12.800  -0.3306   0.07444   0.07137  -0.0115  1.0000  0.0581  -1.2447   0.0000   0.0000   0.0000   0.2145
 -12.700  -0.3296   0.07339   0.07033  -0.0123  1.0000  0.0582  -1.2603   0.0000   0.0000   0.0000   0.2123
 -12.600  -0.3286   0.07226   0.06920  -0.0129  1.0000  0.0583  -1.2755   0.0000   0.0000   0.0000   0.2101
 -12.500  -0.3274   0.07107   0.06802  -0.0136  1.0000  0.0584  -1.2907   0.0000   0.0000   0.0000   0.2079
 -12.400  -0.3263   0.06984   0.06679  -0.0143  1.0000  0.0585  -1.3059   0.0000   0.0000   0.0000   0.2057
 -12.300  -0.3252   0.06857   0.06552  -0.0150  1.0000  0.0585  -1.3213   0.0000   0.0000   0.0000   0.2034
 -12.200  -0.3241   0.06727   0.06423  -0.0157  1.0000  0.0586  -1.3371   0.0000   0.0000   0.0000   0.2012
 -12.100  -0.3230   0.06595   0.06291  -0.0163  1.0000  0.0586  -1.3533   0.0000   0.0000   0.0000   0.1989
 -11.900  -0.3249   0.05987   0.05688  -0.0184  1.0000  0.0601  -1.4459   0.0000   0.0000   0.0000   0.1929
 -11.800  -0.3149   0.05828   0.05529  -0.0174  1.0000  0.0617  -1.3632   0.0000   0.0000   0.0000   0.1945
 -11.700  -0.3065   0.05743   0.05444  -0.0167  1.0000  0.0631  -1.2909   0.0000   0.0000   0.0000   0.1956
 -11.600  -0.3000   0.05666   0.05366  -0.0163  1.0000  0.0649  -1.2370   0.0000   0.0000   0.0000   0.1958
 -11.300  -0.7034   0.12559   0.12207   0.0193  1.0000  0.0400  -2.5902   0.0000   0.0000   0.0000   0.2702
 -11.200  -0.7078   0.12252   0.11901   0.0186  1.0000  0.0405  -2.6409   0.0000   0.0000   0.0000   0.2691
 -11.100  -0.7098   0.12021   0.11671   0.0181  1.0000  0.0410  -2.6606   0.0000   0.0000   0.0000   0.2684
 -11.000  -0.7056   0.11971   0.11620   0.0198  1.0000  0.0422  -2.5604   0.0000   0.0000   0.0000   0.2712
 -10.900  -0.6960   0.12073   0.11719   0.0224  1.0000  0.0446  -2.3815   0.0000   0.0000   0.0000   0.2755
 -10.800  -0.6931   0.11975   0.11621   0.0225  1.0000  0.0459  -2.3425   0.0000   0.0000   0.0000   0.2758
 -10.700  -0.6919   0.11833   0.11479   0.0221  1.0000  0.0469  -2.3328   0.0000   0.0000   0.0000   0.2754
 -10.600  -0.6913   0.11671   0.11318   0.0215  1.0000  0.0477  -2.3356   0.0000   0.0000   0.0000   0.2746
 -10.500  -0.6913   0.11498   0.11146   0.0207  1.0000  0.0485  -2.3458   0.0000   0.0000   0.0000   0.2736
 -10.400  -0.6915   0.11316   0.10964   0.0199  1.0000  0.0492  -2.3612   0.0000   0.0000   0.0000   0.2724
 -10.300  -0.6920   0.11125   0.10775   0.0189  1.0000  0.0498  -2.3807   0.0000   0.0000   0.0000   0.2711
 -10.200  -0.6927   0.10928   0.10578   0.0179  1.0000  0.0504  -2.4034   0.0000   0.0000   0.0000   0.2697
 -10.100  -0.6936   0.10726   0.10377   0.0168  1.0000  0.0510  -2.4288   0.0000   0.0000   0.0000   0.2682
 -10.000  -0.6948   0.10518   0.10171   0.0156  1.0000  0.0515  -2.4570   0.0000   0.0000   0.0000   0.2665
  -9.900  -0.6963   0.10305   0.09958   0.0144  1.0000  0.0520  -2.4882   0.0000   0.0000   0.0000   0.2647
  -9.800  -0.6979   0.10085   0.09740   0.0130  1.0000  0.0525  -2.5218   0.0000   0.0000   0.0000   0.2628
  -9.700  -0.6997   0.09859   0.09515   0.0116  1.0000  0.0529  -2.5578   0.0000   0.0000   0.0000   0.2608
  -9.600  -0.7017   0.09624   0.09282   0.0100  1.0000  0.0533  -2.5967   0.0000   0.0000   0.0000   0.2585
  -9.500  -0.7040   0.09382   0.09041   0.0083  1.0000  0.0535  -2.6384   0.0000   0.0000   0.0000   0.2562
  -9.400  -0.7067   0.09130   0.08790   0.0065  1.0000  0.0537  -2.6828   0.0000   0.0000   0.0000   0.2536
  -9.300  -0.7097   0.08864   0.08527   0.0045  1.0000  0.0537  -2.7302   0.0000   0.0000   0.0000   0.2508
  -9.200  -0.7132   0.08584   0.08248   0.0023  1.0000  0.0536  -2.7814   0.0000   0.0000   0.0000   0.2477
  -9.100  -0.7175   0.08277   0.07943  -0.0005  1.0000  0.0533  -2.8396   0.0000   0.0000   0.0000   0.2439
  -9.000  -0.7234   0.07920   0.07587  -0.0044  1.0000  0.0529  -2.9125   0.0000   0.0000   0.0000   0.2386
  -8.900  -0.7304   0.07601   0.07266  -0.0075  1.0000  0.0525  -2.9816   0.0000   0.0000   0.0000   0.2345
  -8.800  -0.7372   0.07336   0.06998  -0.0092  1.0000  0.0522  -3.0402   0.0000   0.0000   0.0000   0.2323
  -8.700  -0.7431   0.07075   0.06733  -0.0107  1.0000  0.0519  -3.0969   0.0000   0.0000   0.0000   0.2305
  -8.600  -0.7480   0.06810   0.06462  -0.0120  1.0000  0.0515  -3.1532   0.0000   0.0000   0.0000   0.2289
  -8.500  -0.7717   0.05794   0.05398  -0.0154  1.0000  0.0370  -3.7825   0.0000   0.0000   0.0000   0.2247
  -8.400  -0.7762   0.05516   0.05109  -0.0155  1.0000  0.0363  -3.8456   0.0000   0.0000   0.0000   0.2246
  -8.300  -0.7791   0.05256   0.04837  -0.0155  1.0000  0.0356  -3.9038   0.0000   0.0000   0.0000   0.2248
  -8.200  -0.7810   0.05001   0.04568  -0.0154  1.0000  0.0349  -3.9616   0.0000   0.0000   0.0000   0.2250
  -8.100  -0.7818   0.04751   0.04302  -0.0151  1.0000  0.0343  -4.0192   0.0000   0.0000   0.0000   0.2253
  -8.000  -0.7817   0.04507   0.04040  -0.0148  1.0000  0.0337  -4.0760   0.0000   0.0000   0.0000   0.2258
  -7.900  -0.7806   0.04272   0.03786  -0.0143  1.0000  0.0333  -4.1290   0.0000   0.0000   0.0000   0.2264
  -7.800  -0.7787   0.04049   0.03543  -0.0138  1.0000  0.0329  -4.1759   0.0000   0.0000   0.0000   0.2271
  -7.700  -0.7756   0.03840   0.03313  -0.0132  1.0000  0.0327  -4.2136   0.0000   0.0000   0.0000   0.2278
  -7.600  -0.7716   0.03647   0.03100  -0.0126  1.0000  0.0326  -4.2402   0.0000   0.0000   0.0000   0.2285
  -7.500  -0.7668   0.03473   0.02905  -0.0120  1.0000  0.0328  -4.2543   0.0000   0.0000   0.0000   0.2292
  -7.400  -0.7612   0.03315   0.02728  -0.0114  1.0000  0.0330  -4.2564   0.0000   0.0000   0.0000   0.2299
  -7.300  -0.7550   0.03172   0.02566  -0.0108  1.0000  0.0334  -4.2473   0.0000   0.0000   0.0000   0.2306
  -7.200  -0.7481   0.03042   0.02418  -0.0103  1.0000  0.0340  -4.2277   0.0000   0.0000   0.0000   0.2313
  -7.100  -0.7407   0.02924   0.02283  -0.0097  1.0000  0.0346  -4.1981   0.0000   0.0000   0.0000   0.2319
  -7.000  -0.7328   0.02819   0.02162  -0.0092  1.0000  0.0353  -4.1589   0.0000   0.0000   0.0000   0.2325
  -6.900  -0.7244   0.02727   0.02056  -0.0088  1.0000  0.0362  -4.1093   0.0000   0.0000   0.0000   0.2331
  -6.800  -0.7150   0.02695   0.02014  -0.0084  1.0000  0.0375  -4.0209   0.0000   0.0000   0.0000   0.2335
  -6.700  -0.7042   0.02740   0.02055  -0.0082  1.0000  0.0388  -3.8905   0.0000   0.0000   0.0000   0.2337
  -6.600  -0.6979   0.02565   0.01856  -0.0076  1.0000  0.0402  -3.8761   0.0000   0.0000   0.0000   0.2345
  -6.500  -0.6917   0.02332   0.01600  -0.0070  1.0000  0.0421  -3.8819   0.0000   0.0000   0.0000   0.2353
  -6.400  -0.6833   0.02220   0.01480  -0.0066  1.0000  0.0436  -3.8224   0.0000   0.0000   0.0000   0.2358
  -6.300  -0.6743   0.02150   0.01405  -0.0063  1.0000  0.0452  -3.7407   0.0000   0.0000   0.0000   0.2362
  -6.200  -0.6650   0.02095   0.01346  -0.0060  1.0000  0.0470  -3.6520   0.0000   0.0000   0.0000   0.2366
  -6.100  -0.6555   0.02046   0.01291  -0.0057  1.0000  0.0488  -3.5624   0.0000   0.0000   0.0000   0.2370
  -6.000  -0.6458   0.01998   0.01237  -0.0053  1.0000  0.0507  -3.4731   0.0000   0.0000   0.0000   0.2375
  -5.900  -0.6361   0.01955   0.01188  -0.0050  1.0000  0.0527  -3.3804   0.0000   0.0000   0.0000   0.2379
  -5.800  -0.6262   0.01932   0.01160  -0.0048  1.0000  0.0551  -3.2755   0.0000   0.0000   0.0000   0.2383
  -5.700  -0.6161   0.01921   0.01144  -0.0045  1.0000  0.0570  -3.1666   0.0000   0.0000   0.0000   0.2386
  -5.600  -0.6059   0.01915   0.01131  -0.0043  1.0000  0.0582  -3.0575   0.0000   0.0000   0.0000   0.2389
  -5.500  -0.5964   0.01850   0.01060  -0.0040  1.0000  0.0594  -2.9911   0.0000   0.0000   0.0000   0.2394
  -5.400  -0.5876   0.01747   0.00950  -0.0035  1.0000  0.0609  -2.9399   0.0000   0.0000   0.0000   0.2401
  -5.300  -0.5786   0.01677   0.00878  -0.0031  1.0000  0.0624  -2.8753   0.0000   0.0000   0.0000   0.2408
  -5.200  -0.5695   0.01625   0.00825  -0.0028  1.0000  0.0642  -2.8014   0.0000   0.0000   0.0000   0.2414
  -5.100  -0.5601   0.01591   0.00786  -0.0025  1.0000  0.0666  -2.7162   0.0000   0.0000   0.0000   0.2419
  -5.000  -0.5506   0.01563   0.00757  -0.0022  1.0000  0.0688  -2.6334   0.0000   0.0000   0.0000   0.2424
  -4.900  -0.5410   0.01532   0.00725  -0.0018  1.0000  0.0708  -2.5548   0.0000   0.0000   0.0000   0.2430
  -4.800  -0.5316   0.01499   0.00689  -0.0015  1.0000  0.0726  -2.4804   0.0000   0.0000   0.0000   0.2437
  -4.700  -0.5221   0.01466   0.00654  -0.0011  1.0000  0.0747  -2.4072   0.0000   0.0000   0.0000   0.2445
  -4.600  -0.5126   0.01437   0.00621  -0.0007  1.0000  0.0771  -2.3336   0.0000   0.0000   0.0000   0.2452
  -4.500  -0.5028   0.01414   0.00594  -0.0004  1.0000  0.0794  -2.2582   0.0000   0.0000   0.0000   0.2460
  -4.400  -0.4944   0.01363   0.00543   0.0002  1.0000  0.0842  -2.1964   0.0000   0.0000   0.0000   0.2470
  -4.300  -0.4855   0.01324   0.00510   0.0006  1.0000  0.0907  -2.1262   0.0000   0.0000   0.0000   0.2479
  -4.200  -0.4761   0.01298   0.00483   0.0009  1.0000  0.0978  -2.0522   0.0000   0.0000   0.0000   0.2487
  -4.100  -0.4672   0.01260   0.00451   0.0013  1.0000  0.1103  -1.9850   0.0000   0.0000   0.0000   0.2497
  -4.000  -0.4588   0.01210   0.00420   0.0017  1.0000  0.1397  -1.9253   0.0000   0.0000   0.0000   0.2507
  -3.900  -0.4510   0.01154   0.00395   0.0021  1.0000  0.1955  -1.8714   0.0000   0.0000   0.0000   0.2517
  -3.800  -0.4429   0.01109   0.00378   0.0025  1.0000  0.2514  -1.8123   0.0000   0.0000   0.0000   0.2527
  -3.700  -0.4344   0.01075   0.00365   0.0028  1.0000  0.2987  -1.7504   0.0000   0.0000   0.0000   0.2537
  -3.600  -0.4258   0.01046   0.00354   0.0032  1.0000  0.3400  -1.6875   0.0000   0.0000   0.0000   0.2547
  -3.500  -0.4169   0.01022   0.00344   0.0036  1.0000  0.3783  -1.6237   0.0000   0.0000   0.0000   0.2558
  -3.400  -0.4082   0.00998   0.00333   0.0040  1.0000  0.4141  -1.5595   0.0000   0.0000   0.0000   0.2570
  -3.300  -0.3994   0.00976   0.00325   0.0044  1.0000  0.4507  -1.4970   0.0000   0.0000   0.0000   0.2583
  -3.200  -0.3907   0.00954   0.00319   0.0048  1.0000  0.4888  -1.4517   0.0000   0.0000   0.0000   0.2598
  -3.100  -0.3821   0.00932   0.00314   0.0054  1.0000  0.5258  -1.4118   0.0000   0.0000   0.0000   0.2615
  -3.000  -0.3734   0.00914   0.00310   0.0059  1.0000  0.5623  -1.3717   0.0000   0.0000   0.0000   0.2633
  -2.900  -0.3647   0.00895   0.00307   0.0065  1.0000  0.5960  -1.3319   0.0000   0.0000   0.0000   0.2653
  -2.800  -0.3560   0.00879   0.00304   0.0071  1.0000  0.6297  -1.2920   0.0000   0.0000   0.0000   0.2675
  -2.700  -0.3473   0.00864   0.00302   0.0077  1.0000  0.6606  -1.2523   0.0000   0.0000   0.0000   0.2698
  -2.600  -0.3384   0.00852   0.00301   0.0083  1.0000  0.6888  -1.2126   0.0000   0.0000   0.0000   0.2723
  -2.500  -0.3294   0.00841   0.00299   0.0089  1.0000  0.7137  -1.1728   0.0000   0.0000   0.0000   0.2749
  -2.400  -0.3204   0.00832   0.00299   0.0096  1.0000  0.7390  -1.1335   0.0000   0.0000   0.0000   0.2777
  -2.300  -0.3117   0.00823   0.00300   0.0103  1.0000  0.7660  -1.0946   0.0000   0.0000   0.0000   0.2810
  -2.200  -0.3031   0.00817   0.00302   0.0111  1.0000  0.7932  -1.0563   0.0000   0.0000   0.0000   0.2846
  -2.100  -0.2945   0.00812   0.00305   0.0120  1.0000  0.8194  -1.0183   0.0000   0.0000   0.0000   0.2887
  -2.000  -0.2858   0.00810   0.00307   0.0129  1.0000  0.8442  -0.9804   0.0000   0.0000   0.0000   0.2931
  -1.900  -0.2766   0.00810   0.00312   0.0137  1.0000  0.8673  -0.9417   0.0000   0.0000   0.0000   0.2976
  -1.800  -0.2667   0.00813   0.00317   0.0143  1.0000  0.8884  -0.9020   0.0000   0.0000   0.0000   0.3018
  -1.700  -0.2548   0.00817   0.00322   0.0146  1.0000  0.9065  -0.8591   0.0000   0.0000   0.0000   0.3052
  -1.600  -0.2404   0.00822   0.00327   0.0142  1.0000  0.9228  -0.8119   0.0000   0.0000   0.0000   0.3073
  -1.500  -0.2250   0.00828   0.00331   0.0136  1.0000  0.9376  -0.7636   0.0000   0.0000   0.0000   0.3086
  -1.400  -0.2068   0.00834   0.00335   0.0124  1.0000  0.9499  -0.7109   0.0000   0.0000   0.0000   0.3079
  -1.300  -0.1879   0.00838   0.00337   0.0109  1.0000  0.9596  -0.6579   0.0000   0.0000   0.0000   0.3060
  -1.200  -0.1668   0.00843   0.00338   0.0089  1.0000  0.9674  -0.6017   0.0000   0.0000   0.0000   0.3015
  -1.100  -0.1478   0.00847   0.00339   0.0073  1.0000  0.9758  -0.5606   0.0000   0.0000   0.0000   0.2977
  -1.000  -0.1234   0.00849   0.00337   0.0046  1.0000  0.9798  -0.5152   0.0000   0.0000   0.0000   0.2853
  -0.900  -0.1003   0.00850   0.00335   0.0021  1.0000  0.9846  -0.4720   0.0000   0.0000   0.0000   0.2689
  -0.800  -0.0787   0.00851   0.00333  -0.0001  1.0000  0.9900  -0.4313   0.0000   0.0000   0.0000   0.2466
  -0.700  -0.0559   0.00850   0.00330  -0.0026  1.0000  0.9938  -0.3897   0.0000   0.0000   0.0000   0.2013
  -0.600  -0.0334   0.00848   0.00326  -0.0050  1.0000  0.9978  -0.3497   0.0000   0.0000   0.0000   0.0960
  -0.500  -0.0189   0.00844   0.00322  -0.0060  1.0000  1.0000  -0.3305   0.0000   0.0000   0.0000  -0.0706
  -0.400  -0.0144   0.00839   0.00317  -0.0049  1.0000  1.0000  -0.3197   0.0000   0.0000   0.0000  -0.0974
  -0.300  -0.0105   0.00836   0.00314  -0.0038  1.0000  1.0000  -0.3094   0.0000   0.0000   0.0000  -0.1152
  -0.200  -0.0069   0.00833   0.00311  -0.0025  1.0000  1.0000  -0.2994   0.0000   0.0000   0.0000  -0.1237
  -0.100  -0.0034   0.00832   0.00310  -0.0013  1.0000  1.0000  -0.2894   0.0000   0.0000   0.0000  -0.1342
   0.000  -0.0000   0.00831   0.00310   0.0000  1.0000  1.0000  -0.2805   0.0000   0.0000   0.0000   0.4258
   0.100   0.0034   0.00832   0.00310   0.0013  1.0000  1.0000  -0.2894   0.0000   0.0000   0.0000  -0.1342
   0.200   0.0069   0.00833   0.00311   0.0025  1.0000  1.0000  -0.2994   0.0000   0.0000   0.0000  -0.1236
   0.300   0.0105   0.00836   0.00314   0.0038  1.0000  1.0000  -0.3094   0.0000   0.0000   0.0000  -0.1151
   0.400   0.0144   0.00839   0.00317   0.0049  1.0000  1.0000  -0.3197   0.0000   0.0000   0.0000  -0.0972
   0.500   0.0189   0.00844   0.00322   0.0059  1.0000  1.0000  -0.3305   0.0000   0.0000   0.0000  -0.0704
   0.600   0.0334   0.00847   0.00326   0.0050  0.9978  1.0000  -0.3497   0.0000   0.0000   0.0000   0.0959
   0.700   0.0559   0.00850   0.00330   0.0026  0.9938  1.0000  -0.3897   0.0000   0.0000   0.0000   0.2012
   0.800   0.0787   0.00851   0.00333   0.0001  0.9900  1.0000  -0.4313   0.0000   0.0000   0.0000   0.2465
   0.900   0.1003   0.00850   0.00335  -0.0021  0.9846  1.0000  -0.4719   0.0000   0.0000   0.0000   0.2689
   1.000   0.1234   0.00849   0.00337  -0.0046  0.9798  1.0000  -0.5152   0.0000   0.0000   0.0000   0.2853
   1.100   0.1478   0.00847   0.00339  -0.0073  0.9758  1.0000  -0.5605   0.0000   0.0000   0.0000   0.2977
   1.200   0.1668   0.00843   0.00338  -0.0089  0.9674  1.0000  -0.6017   0.0000   0.0000   0.0000   0.3015
   1.300   0.1879   0.00838   0.00337  -0.0109  0.9596  1.0000  -0.6578   0.0000   0.0000   0.0000   0.3060
   1.400   0.2068   0.00833   0.00335  -0.0123  0.9499  1.0000  -0.7109   0.0000   0.0000   0.0000   0.3079
   1.500   0.2250   0.00827   0.00331  -0.0136  0.9376  1.0000  -0.7635   0.0000   0.0000   0.0000   0.3086
   1.600   0.2404   0.00822   0.00327  -0.0142  0.9228  1.0000  -0.8118   0.0000   0.0000   0.0000   0.3073
   1.700   0.2548   0.00816   0.00322  -0.0145  0.9065  1.0000  -0.8590   0.0000   0.0000   0.0000   0.3052
   1.800   0.2667   0.00813   0.00317  -0.0143  0.8884  1.0000  -0.9019   0.0000   0.0000   0.0000   0.3018
   1.900   0.2766   0.00810   0.00312  -0.0137  0.8674  1.0000  -0.9416   0.0000   0.0000   0.0000   0.2976
   2.000   0.2857   0.00810   0.00307  -0.0129  0.8443  1.0000  -0.9803   0.0000   0.0000   0.0000   0.2931
   2.100   0.2945   0.00812   0.00305  -0.0120  0.8194  1.0000  -1.0182   0.0000   0.0000   0.0000   0.2887
   2.200   0.3030   0.00817   0.00302  -0.0111  0.7932  1.0000  -1.0562   0.0000   0.0000   0.0000   0.2846
   2.300   0.3116   0.00823   0.00300  -0.0103  0.7661  1.0000  -1.0945   0.0000   0.0000   0.0000   0.2810
   2.400   0.3204   0.00832   0.00299  -0.0096  0.7390  1.0000  -1.1334   0.0000   0.0000   0.0000   0.2777
   2.500   0.3293   0.00841   0.00299  -0.0089  0.7137  1.0000  -1.1728   0.0000   0.0000   0.0000   0.2748
   2.600   0.3384   0.00851   0.00301  -0.0083  0.6888  1.0000  -1.2125   0.0000   0.0000   0.0000   0.2723
   2.700   0.3472   0.00864   0.00302  -0.0077  0.6607  1.0000  -1.2522   0.0000   0.0000   0.0000   0.2698
   2.800   0.3560   0.00879   0.00304  -0.0070  0.6297  1.0000  -1.2919   0.0000   0.0000   0.0000   0.2675
   2.900   0.3647   0.00895   0.00307  -0.0065  0.5960  1.0000  -1.3318   0.0000   0.0000   0.0000   0.2653
   3.000   0.3733   0.00914   0.00310  -0.0059  0.5624  1.0000  -1.3716   0.0000   0.0000   0.0000   0.2633
   3.100   0.3821   0.00932   0.00314  -0.0054  0.5259  1.0000  -1.4117   0.0000   0.0000   0.0000   0.2615
   3.200   0.3907   0.00954   0.00319  -0.0048  0.4889  1.0000  -1.4516   0.0000   0.0000   0.0000   0.2598
   3.300   0.3993   0.00976   0.00325  -0.0044  0.4508  1.0000  -1.4969   0.0000   0.0000   0.0000   0.2583
   3.400   0.4081   0.00998   0.00332  -0.0039  0.4142  1.0000  -1.5594   0.0000   0.0000   0.0000   0.2570
   3.500   0.4169   0.01022   0.00344  -0.0035  0.3784  1.0000  -1.6235   0.0000   0.0000   0.0000   0.2558
   3.600   0.4257   0.01046   0.00354  -0.0032  0.3401  1.0000  -1.6874   0.0000   0.0000   0.0000   0.2547
   3.700   0.4344   0.01075   0.00365  -0.0028  0.2988  1.0000  -1.7503   0.0000   0.0000   0.0000   0.2536
   3.800   0.4429   0.01109   0.00378  -0.0025  0.2515  1.0000  -1.8122   0.0000   0.0000   0.0000   0.2527
   3.900   0.4510   0.01154   0.00395  -0.0021  0.1956  1.0000  -1.8713   0.0000   0.0000   0.0000   0.2517
   4.000   0.4588   0.01210   0.00420  -0.0017  0.1398  1.0000  -1.9252   0.0000   0.0000   0.0000   0.2507
   4.100   0.4672   0.01260   0.00451  -0.0013  0.1103  1.0000  -1.9849   0.0000   0.0000   0.0000   0.2497
   4.200   0.4761   0.01298   0.00483  -0.0009  0.0978  1.0000  -2.0520   0.0000   0.0000   0.0000   0.2487
   4.300   0.4855   0.01324   0.00509  -0.0005  0.0907  1.0000  -2.1261   0.0000   0.0000   0.0000   0.2479
   4.400   0.4944   0.01363   0.00543  -0.0001  0.0842  1.0000  -2.1963   0.0000   0.0000   0.0000   0.2470
   4.500   0.5028   0.01414   0.00593   0.0004  0.0794  1.0000  -2.2581   0.0000   0.0000   0.0000   0.2459
   4.600   0.5125   0.01437   0.00621   0.0007  0.0771  1.0000  -2.3335   0.0000   0.0000   0.0000   0.2452
   4.700   0.5221   0.01466   0.00654   0.0011  0.0747  1.0000  -2.4071   0.0000   0.0000   0.0000   0.2445
   4.800   0.5315   0.01498   0.00689   0.0015  0.0726  1.0000  -2.4803   0.0000   0.0000   0.0000   0.2437
   4.900   0.5410   0.01532   0.00725   0.0019  0.0708  1.0000  -2.5547   0.0000   0.0000   0.0000   0.2430
   5.000   0.5505   0.01563   0.00757   0.0022  0.0688  1.0000  -2.6333   0.0000   0.0000   0.0000   0.2424
   5.100   0.5601   0.01591   0.00786   0.0025  0.0666  1.0000  -2.7161   0.0000   0.0000   0.0000   0.2419
   5.200   0.5695   0.01625   0.00825   0.0028  0.0642  1.0000  -2.8014   0.0000   0.0000   0.0000   0.2414
   5.300   0.5785   0.01677   0.00877   0.0031  0.0624  1.0000  -2.8752   0.0000   0.0000   0.0000   0.2408
   5.400   0.5876   0.01747   0.00950   0.0035  0.0609  1.0000  -2.9399   0.0000   0.0000   0.0000   0.2401
   5.500   0.5964   0.01850   0.01060   0.0040  0.0594  1.0000  -2.9910   0.0000   0.0000   0.0000   0.2394
   5.600   0.6059   0.01915   0.01131   0.0043  0.0582  1.0000  -3.0575   0.0000   0.0000   0.0000   0.2389
   5.700   0.6161   0.01921   0.01143   0.0045  0.0570  1.0000  -3.1665   0.0000   0.0000   0.0000   0.2386
   5.800   0.6262   0.01932   0.01160   0.0048  0.0551  1.0000  -3.2754   0.0000   0.0000   0.0000   0.2383
   5.900   0.6361   0.01955   0.01188   0.0050  0.0527  1.0000  -3.3804   0.0000   0.0000   0.0000   0.2379
   6.000   0.6458   0.01998   0.01237   0.0053  0.0507  1.0000  -3.4731   0.0000   0.0000   0.0000   0.2375
   6.100   0.6555   0.02046   0.01291   0.0057  0.0488  1.0000  -3.5624   0.0000   0.0000   0.0000   0.2370
   6.200   0.6650   0.02095   0.01346   0.0060  0.0470  1.0000  -3.6520   0.0000   0.0000   0.0000   0.2366
   6.300   0.6743   0.02150   0.01405   0.0063  0.0452  1.0000  -3.7407   0.0000   0.0000   0.0000   0.2362
   6.400   0.6833   0.02220   0.01480   0.0066  0.0436  1.0000  -3.8225   0.0000   0.0000   0.0000   0.2358
   6.500   0.6917   0.02332   0.01600   0.0070  0.0420  1.0000  -3.8820   0.0000   0.0000   0.0000   0.2353
   6.600   0.6979   0.02565   0.01856   0.0076  0.0402  1.0000  -3.8761   0.0000   0.0000   0.0000   0.2345
   6.700   0.7042   0.02740   0.02055   0.0082  0.0388  1.0000  -3.8907   0.0000   0.0000   0.0000   0.2338
   6.800   0.7150   0.02695   0.02014   0.0084  0.0375  1.0000  -4.0210   0.0000   0.0000   0.0000   0.2335
   6.900   0.7245   0.02727   0.02056   0.0088  0.0362  1.0000  -4.1094   0.0000   0.0000   0.0000   0.2331
   7.000   0.7328   0.02819   0.02162   0.0092  0.0353  1.0000  -4.1590   0.0000   0.0000   0.0000   0.2325
   7.100   0.7407   0.02924   0.02283   0.0097  0.0346  1.0000  -4.1982   0.0000   0.0000   0.0000   0.2319
   7.200   0.7481   0.03042   0.02418   0.0103  0.0340  1.0000  -4.2277   0.0000   0.0000   0.0000   0.2313
   7.300   0.7550   0.03172   0.02566   0.0108  0.0334  1.0000  -4.2473   0.0000   0.0000   0.0000   0.2306
   7.400   0.7613   0.03315   0.02728   0.0114  0.0330  1.0000  -4.2565   0.0000   0.0000   0.0000   0.2299
   7.500   0.7669   0.03473   0.02906   0.0120  0.0328  1.0000  -4.2544   0.0000   0.0000   0.0000   0.2292
   7.600   0.7717   0.03648   0.03101   0.0126  0.0326  1.0000  -4.2402   0.0000   0.0000   0.0000   0.2285
   7.700   0.7757   0.03840   0.03314   0.0132  0.0327  1.0000  -4.2135   0.0000   0.0000   0.0000   0.2278
   7.800   0.7787   0.04050   0.03544   0.0138  0.0329  1.0000  -4.1757   0.0000   0.0000   0.0000   0.2271
   7.900   0.7807   0.04273   0.03787   0.0143  0.0333  1.0000  -4.1288   0.0000   0.0000   0.0000   0.2264
   8.000   0.7818   0.04508   0.04042   0.0148  0.0337  1.0000  -4.0757   0.0000   0.0000   0.0000   0.2259
   8.100   0.7819   0.04753   0.04304   0.0151  0.0343  1.0000  -4.0189   0.0000   0.0000   0.0000   0.2254
   8.200   0.7811   0.05003   0.04570   0.0154  0.0349  1.0000  -3.9612   0.0000   0.0000   0.0000   0.2250
   8.300   0.7792   0.05258   0.04839   0.0155  0.0356  1.0000  -3.9033   0.0000   0.0000   0.0000   0.2248
   8.400   0.7763   0.05519   0.05113   0.0155  0.0363  1.0000  -3.8450   0.0000   0.0000   0.0000   0.2247
   8.500   0.7718   0.05798   0.05402   0.0153  0.0370  1.0000  -3.7817   0.0000   0.0000   0.0000   0.2248
   8.600   0.7483   0.06815   0.06467   0.0119  0.0515  1.0000  -3.1525   0.0000   0.0000   0.0000   0.2291
   8.700   0.7434   0.07081   0.06739   0.0105  0.0519  1.0000  -3.0961   0.0000   0.0000   0.0000   0.2307
   8.800   0.7376   0.07343   0.07005   0.0091  0.0522  1.0000  -3.0392   0.0000   0.0000   0.0000   0.2325
   8.900   0.7308   0.07609   0.07274   0.0073  0.0525  1.0000  -2.9804   0.0000   0.0000   0.0000   0.2348
   9.000   0.7240   0.07931   0.07599   0.0041  0.0529  1.0000  -2.9108   0.0000   0.0000   0.0000   0.2390
   9.100   0.7181   0.08288   0.07954   0.0003  0.0533  1.0000  -2.8382   0.0000   0.0000   0.0000   0.2442
   9.200   0.7139   0.08595   0.08259  -0.0025  0.0536  1.0000  -2.7801   0.0000   0.0000   0.0000   0.2480
   9.300   0.7104   0.08875   0.08538  -0.0048  0.0537  1.0000  -2.7290   0.0000   0.0000   0.0000   0.2512
   9.400   0.7075   0.09140   0.08801  -0.0068  0.0536  1.0000  -2.6817   0.0000   0.0000   0.0000   0.2540
   9.500   0.7049   0.09393   0.09052  -0.0086  0.0535  1.0000  -2.6375   0.0000   0.0000   0.0000   0.2565
   9.600   0.7026   0.09635   0.09293  -0.0103  0.0532  1.0000  -2.5959   0.0000   0.0000   0.0000   0.2589
   9.700   0.7007   0.09869   0.09526  -0.0119  0.0528  1.0000  -2.5573   0.0000   0.0000   0.0000   0.2611
   9.800   0.6990   0.10096   0.09751  -0.0133  0.0524  1.0000  -2.5216   0.0000   0.0000   0.0000   0.2632
   9.900   0.6974   0.10315   0.09969  -0.0147  0.0519  1.0000  -2.4881   0.0000   0.0000   0.0000   0.2651
  10.000   0.6960   0.10528   0.10180  -0.0159  0.0514  1.0000  -2.4573   0.0000   0.0000   0.0000   0.2669
  10.100   0.6948   0.10735   0.10387  -0.0171  0.0509  1.0000  -2.4294   0.0000   0.0000   0.0000   0.2685
  10.200   0.6939   0.10937   0.10588  -0.0182  0.0503  1.0000  -2.4042   0.0000   0.0000   0.0000   0.2701
  10.300   0.6933   0.11134   0.10783  -0.0192  0.0498  1.0000  -2.3818   0.0000   0.0000   0.0000   0.2715
  10.400   0.6929   0.11324   0.10973  -0.0201  0.0491  1.0000  -2.3630   0.0000   0.0000   0.0000   0.2728
  10.500   0.6927   0.11506   0.11153  -0.0210  0.0484  1.0000  -2.3483   0.0000   0.0000   0.0000   0.2739
  10.600   0.6929   0.11677   0.11324  -0.0217  0.0476  1.0000  -2.3391   0.0000   0.0000   0.0000   0.2749
  10.700   0.6935   0.11836   0.11483  -0.0223  0.0467  1.0000  -2.3380   0.0000   0.0000   0.0000   0.2757
  10.800   0.6949   0.11974   0.11620  -0.0227  0.0457  1.0000  -2.3509   0.0000   0.0000   0.0000   0.2760
  10.900   0.6983   0.12057   0.11703  -0.0224  0.0443  1.0000  -2.4004   0.0000   0.0000   0.0000   0.2754
  11.000   0.7099   0.11897   0.11546  -0.0189  0.0417  1.0000  -2.6239   0.0000   0.0000   0.0000   0.2697
  11.100   0.7110   0.12034   0.11684  -0.0183  0.0409  1.0000  -2.6640   0.0000   0.0000   0.0000   0.2687
  11.200   0.7088   0.12273   0.11922  -0.0188  0.0405  1.0000  -2.6404   0.0000   0.0000   0.0000   0.2694
  11.300   0.7037   0.12602   0.12249  -0.0196  0.0399  1.0000  -2.5815   0.0000   0.0000   0.0000   0.2707
  11.400   0.2784   0.05060   0.04760   0.0189  0.0762  1.0000  -1.1487   0.0000   0.0000   0.0000   0.1832
  11.500   0.2760   0.05147   0.04846   0.0179  0.0740  1.0000  -1.1159   0.0000   0.0000   0.0000   0.1867
  11.600   0.2758   0.05235   0.04934   0.0171  0.0714  1.0000  -1.1041   0.0000   0.0000   0.0000   0.1893
  11.700   0.2779   0.05313   0.05015   0.0168  0.0682  1.0000  -1.1156   0.0000   0.0000   0.0000   0.1909
  11.800   0.2853   0.05355   0.05058   0.0174  0.0643  1.0000  -1.1873   0.0000   0.0000   0.0000   0.1902
  11.900   0.2923   0.05431   0.05133   0.0178  0.0627  1.0000  -1.2445   0.0000   0.0000   0.0000   0.1898
  12.000   0.3016   0.05521   0.05224   0.0187  0.0612  1.0000  -1.3250   0.0000   0.0000   0.0000   0.1885
  12.100   0.3055   0.06017   0.05717   0.0184  0.0587  1.0000  -1.3183   0.0000   0.0000   0.0000   0.1900
  12.200   0.3066   0.06144   0.05843   0.0178  0.0587  1.0000  -1.3021   0.0000   0.0000   0.0000   0.1923
  12.300   0.3077   0.06269   0.05967   0.0171  0.0586  1.0000  -1.2864   0.0000   0.0000   0.0000   0.1947
  12.400   0.3088   0.06392   0.06090   0.0165  0.0586  1.0000  -1.2711   0.0000   0.0000   0.0000   0.1970
  12.500   0.3100   0.06512   0.06209   0.0158  0.0585  1.0000  -1.2562   0.0000   0.0000   0.0000   0.1993
  12.600   0.3112   0.06629   0.06326   0.0152  0.0585  1.0000  -1.2415   0.0000   0.0000   0.0000   0.2016
  12.700   0.3124   0.06742   0.06439   0.0145  0.0584  1.0000  -1.2270   0.0000   0.0000   0.0000   0.2038
  12.800   0.3135   0.06850   0.06546   0.0138  0.0583  1.0000  -1.2124   0.0000   0.0000   0.0000   0.2061
  12.900   0.3146   0.06951   0.06647   0.0132  0.0582  1.0000  -1.1976   0.0000   0.0000   0.0000   0.2084
  13.000   0.3155   0.07042   0.06737   0.0125  0.0580  1.0000  -1.1821   0.0000   0.0000   0.0000   0.2107
  13.100   0.3161   0.07114   0.06810   0.0117  0.0577  1.0000  -1.1645   0.0000   0.0000   0.0000   0.2131
  13.200   0.3147   0.07163   0.06858   0.0107  0.0571  1.0000  -1.1323   0.0000   0.0000   0.0000   0.2163
  13.300   0.3120   0.07197   0.06891   0.0095  0.0562  1.0000  -1.0901   0.0000   0.0000   0.0000   0.2200
  13.400   0.3103   0.07254   0.06948   0.0084  0.0549  1.0000  -1.0537   0.0000   0.0000   0.0000   0.2234
  13.500   0.3106   0.07342   0.07036   0.0076  0.0534  1.0000  -1.0322   0.0000   0.0000   0.0000   0.2262
  13.600   0.3120   0.07444   0.07137   0.0069  0.0521  1.0000  -1.0198   0.0000   0.0000   0.0000   0.2284
  13.700   0.3138   0.07551   0.07244   0.0063  0.0509  1.0000  -1.0121   0.0000   0.0000   0.0000   0.2304
  13.800   0.3159   0.07659   0.07352   0.0057  0.0498  1.0000  -1.0072   0.0000   0.0000   0.0000   0.2322
  13.900   0.3182   0.07769   0.07461   0.0052  0.0488  1.0000  -1.0044   0.0000   0.0000   0.0000   0.2338
  14.000   0.3206   0.07879   0.07571   0.0047  0.0478  1.0000  -1.0032   0.0000   0.0000   0.0000   0.2354
  14.100   0.3232   0.07989   0.07681   0.0043  0.0469  1.0000  -1.0036   0.0000   0.0000   0.0000   0.2369
  14.200   0.3260   0.08099   0.07791   0.0039  0.0461  1.0000  -1.0056   0.0000   0.0000   0.0000   0.2382
  14.300   0.3291   0.08208   0.07900   0.0035  0.0452  1.0000  -1.0125   0.0000   0.0000   0.0000   0.2393
  14.400   0.3329   0.08314   0.08006   0.0033  0.0440  1.0000  -1.0306   0.0000   0.0000   0.0000   0.2400
  14.500   0.3394   0.08421   0.08114   0.0035  0.0425  1.0000  -1.0832   0.0000   0.0000   0.0000   0.2392
  14.600   0.7299   0.18584   0.18215  -0.0501  0.0317  1.0000  -1.8607   0.0000   0.0000   0.0000   0.3091
  14.700   0.7321   0.18738   0.18369  -0.0508  0.0312  1.0000  -1.8633   0.0000   0.0000   0.0000   0.3097
  14.800   0.7343   0.18891   0.18521  -0.0515  0.0308  1.0000  -1.8668   0.0000   0.0000   0.0000   0.3103
  14.900   0.7366   0.19042   0.18673  -0.0521  0.0304  1.0000  -1.8712   0.0000   0.0000   0.0000   0.3109
  15.000   0.7388   0.19193   0.18823  -0.0528  0.0299  1.0000  -1.8765   0.0000   0.0000   0.0000   0.3115


