xflr5 v6.61

 Calculated polar for: NACA 0008

 1 1 Reynolds number fixed          Mach number fixed         

 xtrf =   1.000 (top)        1.000 (bottom)
 Mach =   0.000     Re =     0.100 e 6     Ncrit =   9.000

  alpha     CL        CD       CDp       Cm    Top Xtr Bot Xtr   Cpmin    Chinge    XCp    
 ------- -------- --------- --------- -------- ------- ------- -------- --------- ---------
 -13.000  -0.7103   0.16685   0.16171   0.0345  1.0000  0.0787  -1.9216   0.0000   0.0000   0.0000   0.2907
 -12.900  -0.7128   0.16602   0.16091   0.0327  1.0000  0.0792  -1.9656   0.0000   0.0000   0.0000   0.2881
 -12.800  -0.7145   0.16501   0.15991   0.0310  1.0000  0.0795  -2.0034   0.0000   0.0000   0.0000   0.2858
 -12.700  -0.7159   0.16384   0.15876   0.0296  1.0000  0.0797  -2.0381   0.0000   0.0000   0.0000   0.2837
 -12.600  -0.7172   0.16254   0.15747   0.0282  1.0000  0.0798  -2.0712   0.0000   0.0000   0.0000   0.2817
 -12.500  -0.7180   0.16113   0.15607   0.0269  1.0000  0.0799  -2.1007   0.0000   0.0000   0.0000   0.2800
 -12.400  -0.7181   0.15962   0.15458   0.0258  1.0000  0.0800  -2.1258   0.0000   0.0000   0.0000   0.2786
 -12.300  -0.7182   0.15805   0.15302   0.0247  1.0000  0.0801  -2.1507   0.0000   0.0000   0.0000   0.2771
 -12.200  -0.7183   0.15641   0.15139   0.0236  1.0000  0.0802  -2.1755   0.0000   0.0000   0.0000   0.2757
 -12.100  -0.7055   0.14893   0.14390   0.0282  1.0000  0.0826  -2.0813   0.0000   0.0000   0.0000   0.2827
 -12.000  -0.6968   0.14705   0.14199   0.0298  1.0000  0.0839  -2.0213   0.0000   0.0000   0.0000   0.2855
 -11.900  -0.6913   0.14547   0.14041   0.0304  1.0000  0.0853  -1.9874   0.0000   0.0000   0.0000   0.2869
 -11.800  -0.6874   0.14398   0.13890   0.0306  1.0000  0.0866  -1.9675   0.0000   0.0000   0.0000   0.2875
 -11.700  -0.6846   0.14249   0.13741   0.0305  1.0000  0.0879  -1.9568   0.0000   0.0000   0.0000   0.2877
 -11.600  -0.6825   0.14099   0.13592   0.0303  1.0000  0.0894  -1.9527   0.0000   0.0000   0.0000   0.2875
 -11.500  -0.6811   0.13948   0.13441   0.0298  1.0000  0.0909  -1.9538   0.0000   0.0000   0.0000   0.2871
 -11.400  -0.6802   0.13794   0.13287   0.0293  1.0000  0.0924  -1.9599   0.0000   0.0000   0.0000   0.2863
 -11.300  -0.6800   0.13638   0.13133   0.0285  1.0000  0.0941  -1.9713   0.0000   0.0000   0.0000   0.2854
 -11.200  -0.6806   0.13483   0.12978   0.0275  1.0000  0.0958  -1.9900   0.0000   0.0000   0.0000   0.2839
 -11.100  -0.6826   0.13332   0.12828   0.0261  1.0000  0.0977  -2.0211   0.0000   0.0000   0.0000   0.2818
 -11.000  -0.6875   0.13200   0.12700   0.0237  1.0000  0.0995  -2.0759   0.0000   0.0000   0.0000   0.2781
 -10.900  -0.6949   0.13093   0.12597   0.0206  1.0000  0.1007  -2.1485   0.0000   0.0000   0.0000   0.2734
 -10.800  -0.7010   0.12977   0.12484   0.0178  1.0000  0.1013  -2.2110   0.0000   0.0000   0.0000   0.2693
 -10.700  -0.7063   0.12834   0.12344   0.0154  1.0000  0.1016  -2.2647   0.0000   0.0000   0.0000   0.2658
 -10.600  -0.7113   0.12672   0.12185   0.0132  1.0000  0.1018  -2.3146   0.0000   0.0000   0.0000   0.2626
 -10.500  -0.7143   0.12502   0.12017   0.0113  1.0000  0.1020  -2.3536   0.0000   0.0000   0.0000   0.2599
 -10.400  -0.7174   0.12317   0.11834   0.0093  1.0000  0.1021  -2.3926   0.0000   0.0000   0.0000   0.2572
 -10.300  -0.7037   0.11774   0.11290   0.0149  1.0000  0.1044  -2.2911   0.0000   0.0000   0.0000   0.2653
 -10.200  -0.6919   0.11629   0.11141   0.0177  1.0000  0.1061  -2.2037   0.0000   0.0000   0.0000   0.2698
 -10.100  -0.6856   0.11496   0.11007   0.0188  1.0000  0.1077  -2.1615   0.0000   0.0000   0.0000   0.2717
 -10.000  -0.6810   0.11368   0.10878   0.0194  1.0000  0.1098  -2.1302   0.0000   0.0000   0.0000   0.2728
  -9.900  -0.6779   0.11244   0.10754   0.0196  1.0000  0.1127  -2.1089   0.0000   0.0000   0.0000   0.2733
  -9.800  -0.6778   0.11096   0.10607   0.0189  1.0000  0.1155  -2.1116   0.0000   0.0000   0.0000   0.2725
  -9.700  -0.6799   0.10930   0.10443   0.0177  1.0000  0.1181  -2.1338   0.0000   0.0000   0.0000   0.2706
  -9.600  -0.6841   0.10751   0.10266   0.0157  1.0000  0.1201  -2.1744   0.0000   0.0000   0.0000   0.2676
  -9.500  -0.6904   0.10563   0.10082   0.0129  1.0000  0.1216  -2.2314   0.0000   0.0000   0.0000   0.2635
  -9.400  -0.6981   0.10363   0.09886   0.0097  1.0000  0.1225  -2.2972   0.0000   0.0000   0.0000   0.2588
  -9.300  -0.7066   0.10148   0.09675   0.0060  1.0000  0.1232  -2.3681   0.0000   0.0000   0.0000   0.2534
  -9.200  -0.7164   0.09900   0.09431   0.0016  1.0000  0.1235  -2.4437   0.0000   0.0000   0.0000   0.2474
  -9.100  -0.7292   0.09687   0.09217  -0.0021  1.0000  0.1238  -2.5232   0.0000   0.0000   0.0000   0.2423
  -9.000  -0.6856   0.09688   0.09213   0.0127  1.0000  0.1330  -2.1949   0.0000   0.0000   0.0000   0.2637
  -8.900  -0.4174   0.02129   0.01710  -0.0437  1.0000  0.0792  -2.3695   0.0000   0.0000   0.0000   0.1433
  -8.800  -0.4252   0.01998   0.01579  -0.0440  1.0000  0.0786  -2.4068   0.0000   0.0000   0.0000   0.1444
  -8.700  -0.4345   0.01887   0.01465  -0.0442  1.0000  0.0782  -2.4451   0.0000   0.0000   0.0000   0.1462
  -8.600  -0.4448   0.01787   0.01363  -0.0441  1.0000  0.0778  -2.4828   0.0000   0.0000   0.0000   0.1486
  -8.500  -0.4556   0.01697   0.01271  -0.0438  1.0000  0.0775  -2.5193   0.0000   0.0000   0.0000   0.1516
  -8.400  -0.4669   0.01616   0.01186  -0.0433  1.0000  0.0771  -2.5543   0.0000   0.0000   0.0000   0.1551
  -8.300  -0.4786   0.01543   0.01109  -0.0424  1.0000  0.0768  -2.5878   0.0000   0.0000   0.0000   0.1591
  -8.100  -0.7509   0.06334   0.05802  -0.0142  1.0000  0.0776  -3.2271   0.0000   0.0000   0.0000   0.2263
  -8.000  -0.7507   0.06082   0.05546  -0.0144  1.0000  0.0765  -3.2461   0.0000   0.0000   0.0000   0.2262
  -7.900  -0.7502   0.05853   0.05308  -0.0145  1.0000  0.0758  -3.2690   0.0000   0.0000   0.0000   0.2260
  -7.800  -0.7493   0.05633   0.05077  -0.0146  1.0000  0.0754  -3.2921   0.0000   0.0000   0.0000   0.2259
  -7.700  -0.7478   0.05419   0.04849  -0.0145  1.0000  0.0751  -3.3142   0.0000   0.0000   0.0000   0.2259
  -7.600  -0.7459   0.05207   0.04623  -0.0144  1.0000  0.0747  -3.3350   0.0000   0.0000   0.0000   0.2260
  -7.500  -0.7434   0.04994   0.04395  -0.0143  1.0000  0.0742  -3.3553   0.0000   0.0000   0.0000   0.2262
  -7.400  -0.7406   0.04778   0.04163  -0.0141  1.0000  0.0734  -3.3768   0.0000   0.0000   0.0000   0.2265
  -7.300  -0.7373   0.04556   0.03923  -0.0137  1.0000  0.0723  -3.4018   0.0000   0.0000   0.0000   0.2268
  -7.200  -0.7337   0.04331   0.03677  -0.0134  1.0000  0.0710  -3.4315   0.0000   0.0000   0.0000   0.2273
  -7.100  -0.7294   0.04117   0.03438  -0.0129  1.0000  0.0699  -3.4584   0.0000   0.0000   0.0000   0.2278
  -7.000  -0.7244   0.03917   0.03215  -0.0124  1.0000  0.0693  -3.4772   0.0000   0.0000   0.0000   0.2284
  -6.900  -0.7185   0.03737   0.03011  -0.0118  1.0000  0.0690  -3.4845   0.0000   0.0000   0.0000   0.2291
  -6.800  -0.7120   0.03576   0.02827  -0.0113  1.0000  0.0691  -3.4796   0.0000   0.0000   0.0000   0.2297
  -6.700  -0.7049   0.03430   0.02660  -0.0107  1.0000  0.0696  -3.4642   0.0000   0.0000   0.0000   0.2303
  -6.600  -0.6973   0.03297   0.02506  -0.0102  1.0000  0.0704  -3.4399   0.0000   0.0000   0.0000   0.2310
  -6.500  -0.6893   0.03175   0.02364  -0.0097  1.0000  0.0714  -3.4086   0.0000   0.0000   0.0000   0.2316
  -6.400  -0.6807   0.03088   0.02259  -0.0092  1.0000  0.0738  -3.3573   0.0000   0.0000   0.0000   0.2321
  -6.300  -0.6717   0.03039   0.02192  -0.0088  1.0000  0.0770  -3.2932   0.0000   0.0000   0.0000   0.2327
  -6.200  -0.6621   0.03025   0.02157  -0.0082  1.0000  0.0795  -3.2223   0.0000   0.0000   0.0000   0.2334
  -6.100  -0.6540   0.02884   0.01996  -0.0078  1.0000  0.0810  -3.1860   0.0000   0.0000   0.0000   0.2340
  -6.000  -0.6456   0.02704   0.01801  -0.0074  1.0000  0.0826  -3.1491   0.0000   0.0000   0.0000   0.2344
  -5.900  -0.6364   0.02584   0.01675  -0.0071  1.0000  0.0843  -3.0866   0.0000   0.0000   0.0000   0.2347
  -5.800  -0.6269   0.02499   0.01585  -0.0069  1.0000  0.0862  -3.0121   0.0000   0.0000   0.0000   0.2351
  -5.700  -0.6172   0.02428   0.01508  -0.0065  1.0000  0.0882  -2.9412   0.0000   0.0000   0.0000   0.2355
  -5.600  -0.6076   0.02380   0.01456  -0.0063  1.0000  0.0914  -2.8706   0.0000   0.0000   0.0000   0.2358
  -5.500  -0.5979   0.02343   0.01413  -0.0060  1.0000  0.0955  -2.7975   0.0000   0.0000   0.0000   0.2362
  -5.400  -0.5879   0.02300   0.01359  -0.0056  1.0000  0.0986  -2.7310   0.0000   0.0000   0.0000   0.2366
  -5.300  -0.5775   0.02245   0.01294  -0.0053  1.0000  0.1003  -2.6692   0.0000   0.0000   0.0000   0.2371
  -5.200  -0.5671   0.02188   0.01219  -0.0049  1.0000  0.1015  -2.6070   0.0000   0.0000   0.0000   0.2376
  -5.100  -0.5570   0.02097   0.01125  -0.0046  1.0000  0.1034  -2.5524   0.0000   0.0000   0.0000   0.2381
  -5.000  -0.5476   0.02002   0.01035  -0.0042  1.0000  0.1066  -2.4944   0.0000   0.0000   0.0000   0.2387
  -4.900  -0.5382   0.01943   0.00980  -0.0039  1.0000  0.1102  -2.4282   0.0000   0.0000   0.0000   0.2393
  -4.800  -0.5286   0.01895   0.00933  -0.0035  1.0000  0.1146  -2.3619   0.0000   0.0000   0.0000   0.2399
  -4.700  -0.5189   0.01851   0.00886  -0.0031  1.0000  0.1198  -2.2975   0.0000   0.0000   0.0000   0.2407
  -4.600  -0.5092   0.01810   0.00839  -0.0026  1.0000  0.1251  -2.2346   0.0000   0.0000   0.0000   0.2415
  -4.500  -0.5012   0.01739   0.00783  -0.0021  1.0000  0.1331  -2.1749   0.0000   0.0000   0.0000   0.2425
  -4.400  -0.4921   0.01697   0.00741  -0.0016  1.0000  0.1436  -2.1113   0.0000   0.0000   0.0000   0.2434
  -4.300  -0.4840   0.01634   0.00694  -0.0011  1.0000  0.1590  -2.0542   0.0000   0.0000   0.0000   0.2446
  -4.200  -0.4763   0.01566   0.00646  -0.0005  1.0000  0.1903  -2.0021   0.0000   0.0000   0.0000   0.2459
  -4.100  -0.4703   0.01472   0.00605   0.0002  1.0000  0.2591  -1.9558   0.0000   0.0000   0.0000   0.2474
  -4.000  -0.4647   0.01395   0.00583   0.0010  1.0000  0.3504  -1.9104   0.0000   0.0000   0.0000   0.2493
  -3.900  -0.4583   0.01344   0.00570   0.0019  1.0000  0.4248  -1.8572   0.0000   0.0000   0.0000   0.2513
  -3.800  -0.4513   0.01307   0.00561   0.0028  1.0000  0.4820  -1.8004   0.0000   0.0000   0.0000   0.2535
  -3.700  -0.4438   0.01280   0.00553   0.0038  1.0000  0.5293  -1.7414   0.0000   0.0000   0.0000   0.2557
  -3.600  -0.4359   0.01257   0.00545   0.0046  1.0000  0.5697  -1.6811   0.0000   0.0000   0.0000   0.2579
  -3.500  -0.4278   0.01238   0.00539   0.0055  1.0000  0.6059  -1.6201   0.0000   0.0000   0.0000   0.2603
  -3.400  -0.4196   0.01222   0.00528   0.0064  1.0000  0.6389  -1.5580   0.0000   0.0000   0.0000   0.2627
  -3.300  -0.4114   0.01208   0.00525   0.0074  1.0000  0.6717  -1.4973   0.0000   0.0000   0.0000   0.2655
  -3.200  -0.4033   0.01196   0.00524   0.0085  1.0000  0.7057  -1.4450   0.0000   0.0000   0.0000   0.2686
  -3.100  -0.3954   0.01188   0.00527   0.0098  1.0000  0.7398  -1.4059   0.0000   0.0000   0.0000   0.2723
  -3.000  -0.3875   0.01183   0.00530   0.0111  1.0000  0.7729  -1.3672   0.0000   0.0000   0.0000   0.2761
  -2.900  -0.3787   0.01183   0.00537   0.0123  1.0000  0.8025  -1.3264   0.0000   0.0000   0.0000   0.2802
  -2.800  -0.3693   0.01186   0.00544   0.0135  1.0000  0.8309  -1.2844   0.0000   0.0000   0.0000   0.2842
  -2.700  -0.3586   0.01193   0.00552   0.0144  1.0000  0.8574  -1.2402   0.0000   0.0000   0.0000   0.2879
  -2.600  -0.3456   0.01203   0.00559   0.0148  1.0000  0.8811  -1.1917   0.0000   0.0000   0.0000   0.2906
  -2.500  -0.3288   0.01214   0.00566   0.0144  1.0000  0.9011  -1.1363   0.0000   0.0000   0.0000   0.2916
  -2.400  -0.3087   0.01227   0.00571   0.0133  1.0000  0.9193  -1.0752   0.0000   0.0000   0.0000   0.2907
  -2.300  -0.2874   0.01239   0.00574   0.0117  1.0000  0.9360  -1.0127   0.0000   0.0000   0.0000   0.2886
  -2.200  -0.2593   0.01251   0.00572   0.0088  1.0000  0.9490  -0.9382   0.0000   0.0000   0.0000   0.2815
  -2.100  -0.2301   0.01259   0.00568   0.0054  1.0000  0.9602  -0.8632   0.0000   0.0000   0.0000   0.2710
  -2.000  -0.1998   0.01261   0.00560   0.0016  1.0000  0.9705  -0.7877   0.0000   0.0000   0.0000   0.2557
  -1.900  -0.1708   0.01258   0.00548  -0.0020  1.0000  0.9798  -0.7160   0.0000   0.0000   0.0000   0.2356
  -1.800  -0.1420   0.01251   0.00533  -0.0057  1.0000  0.9894  -0.6463   0.0000   0.0000   0.0000   0.2071
  -1.700  -0.1126   0.01240   0.00513  -0.0095  1.0000  0.9972  -0.5856   0.0000   0.0000   0.0000   0.1619
  -1.600  -0.0985   0.01226   0.00495  -0.0106  1.0000  1.0000  -0.5544   0.0000   0.0000   0.0000   0.1384
  -1.500  -0.0917   0.01212   0.00477  -0.0103  1.0000  1.0000  -0.5333   0.0000   0.0000   0.0000   0.1339
  -1.400  -0.0848   0.01199   0.00462  -0.0099  1.0000  1.0000  -0.5121   0.0000   0.0000   0.0000   0.1293
  -1.300  -0.0781   0.01188   0.00449  -0.0095  1.0000  1.0000  -0.4910   0.0000   0.0000   0.0000   0.1246
  -1.200  -0.0713   0.01177   0.00437  -0.0090  1.0000  1.0000  -0.4701   0.0000   0.0000   0.0000   0.1197
  -1.100  -0.0647   0.01168   0.00427  -0.0085  1.0000  1.0000  -0.4493   0.0000   0.0000   0.0000   0.1147
  -1.000  -0.0581   0.01160   0.00417  -0.0080  1.0000  1.0000  -0.4287   0.0000   0.0000   0.0000   0.1096
  -0.900  -0.0517   0.01153   0.00409  -0.0073  1.0000  1.0000  -0.4083   0.0000   0.0000   0.0000   0.1045
  -0.800  -0.0455   0.01147   0.00402  -0.0067  1.0000  1.0000  -0.3883   0.0000   0.0000   0.0000   0.0995
  -0.700  -0.0393   0.01141   0.00396  -0.0060  1.0000  1.0000  -0.3685   0.0000   0.0000   0.0000   0.0947
  -0.600  -0.0334   0.01137   0.00390  -0.0052  1.0000  1.0000  -0.3490   0.0000   0.0000   0.0000   0.0903
  -0.500  -0.0276   0.01133   0.00386  -0.0044  1.0000  1.0000  -0.3363   0.0000   0.0000   0.0000   0.0868
  -0.400  -0.0219   0.01130   0.00382  -0.0036  1.0000  1.0000  -0.3245   0.0000   0.0000   0.0000   0.0843
  -0.300  -0.0164   0.01127   0.00380  -0.0027  1.0000  1.0000  -0.3128   0.0000   0.0000   0.0000   0.0831
  -0.200  -0.0110   0.01125   0.00378  -0.0018  1.0000  1.0000  -0.3012   0.0000   0.0000   0.0000   0.0836
  -0.100  -0.0055   0.01124   0.00377  -0.0009  1.0000  1.0000  -0.2913   0.0000   0.0000   0.0000   0.0855
   0.000  -0.0000   0.01124   0.00377   0.0000  1.0000  1.0000  -0.2815   0.0000   0.0000   0.0000   0.4185
   0.100   0.0055   0.01124   0.00377   0.0009  1.0000  1.0000  -0.2913   0.0000   0.0000   0.0000   0.0855
   0.200   0.0110   0.01125   0.00378   0.0018  1.0000  1.0000  -0.3012   0.0000   0.0000   0.0000   0.0836
   0.300   0.0164   0.01127   0.00380   0.0027  1.0000  1.0000  -0.3128   0.0000   0.0000   0.0000   0.0832
   0.400   0.0219   0.01130   0.00382   0.0036  1.0000  1.0000  -0.3245   0.0000   0.0000   0.0000   0.0843
   0.500   0.0276   0.01133   0.00386   0.0044  1.0000  1.0000  -0.3363   0.0000   0.0000   0.0000   0.0868
   0.600   0.0334   0.01137   0.00390   0.0052  1.0000  1.0000  -0.3490   0.0000   0.0000   0.0000   0.0904
   0.700   0.0393   0.01141   0.00395   0.0060  1.0000  1.0000  -0.3685   0.0000   0.0000   0.0000   0.0948
   0.800   0.0455   0.01147   0.00402   0.0067  1.0000  1.0000  -0.3883   0.0000   0.0000   0.0000   0.0996
   0.900   0.0518   0.01153   0.00409   0.0073  1.0000  1.0000  -0.4084   0.0000   0.0000   0.0000   0.1046
   1.000   0.0582   0.01160   0.00417   0.0080  1.0000  1.0000  -0.4287   0.0000   0.0000   0.0000   0.1097
   1.100   0.0647   0.01168   0.00426   0.0085  1.0000  1.0000  -0.4493   0.0000   0.0000   0.0000   0.1148
   1.200   0.0714   0.01177   0.00437   0.0090  1.0000  1.0000  -0.4701   0.0000   0.0000   0.0000   0.1198
   1.300   0.0781   0.01187   0.00449   0.0095  1.0000  1.0000  -0.4911   0.0000   0.0000   0.0000   0.1247
   1.400   0.0849   0.01199   0.00462   0.0099  1.0000  1.0000  -0.5122   0.0000   0.0000   0.0000   0.1295
   1.500   0.0917   0.01211   0.00476   0.0103  1.0000  1.0000  -0.5334   0.0000   0.0000   0.0000   0.1341
   1.600   0.0986   0.01225   0.00495   0.0106  1.0000  1.0000  -0.5545   0.0000   0.0000   0.0000   0.1386
   1.700   0.1126   0.01239   0.00513   0.0096  0.9973  1.0000  -0.5855   0.0000   0.0000   0.0000   0.1618
   1.800   0.1420   0.01251   0.00532   0.0057  0.9894  1.0000  -0.6463   0.0000   0.0000   0.0000   0.2070
   1.900   0.1707   0.01258   0.00547   0.0020  0.9799  1.0000  -0.7160   0.0000   0.0000   0.0000   0.2356
   2.000   0.1998   0.01261   0.00560  -0.0016  0.9705  1.0000  -0.7877   0.0000   0.0000   0.0000   0.2556
   2.100   0.2301   0.01258   0.00568  -0.0054  0.9602  1.0000  -0.8631   0.0000   0.0000   0.0000   0.2709
   2.200   0.2593   0.01251   0.00572  -0.0088  0.9490  1.0000  -0.9382   0.0000   0.0000   0.0000   0.2815
   2.300   0.2873   0.01239   0.00574  -0.0117  0.9360  1.0000  -1.0126   0.0000   0.0000   0.0000   0.2885
   2.400   0.3087   0.01227   0.00571  -0.0133  0.9193  1.0000  -1.0752   0.0000   0.0000   0.0000   0.2907
   2.500   0.3287   0.01214   0.00566  -0.0144  0.9011  1.0000  -1.1363   0.0000   0.0000   0.0000   0.2916
   2.600   0.3455   0.01202   0.00559  -0.0148  0.8811  1.0000  -1.1916   0.0000   0.0000   0.0000   0.2906
   2.700   0.3586   0.01193   0.00552  -0.0144  0.8574  1.0000  -1.2401   0.0000   0.0000   0.0000   0.2879
   2.800   0.3693   0.01186   0.00544  -0.0135  0.8309  1.0000  -1.2844   0.0000   0.0000   0.0000   0.2842
   2.900   0.3787   0.01182   0.00537  -0.0123  0.8026  1.0000  -1.3263   0.0000   0.0000   0.0000   0.2802
   3.000   0.3875   0.01183   0.00530  -0.0110  0.7730  1.0000  -1.3671   0.0000   0.0000   0.0000   0.2761
   3.100   0.3953   0.01188   0.00527  -0.0098  0.7399  1.0000  -1.4058   0.0000   0.0000   0.0000   0.2722
   3.200   0.4033   0.01196   0.00524  -0.0085  0.7058  1.0000  -1.4449   0.0000   0.0000   0.0000   0.2686
   3.300   0.4113   0.01207   0.00525  -0.0074  0.6717  1.0000  -1.4971   0.0000   0.0000   0.0000   0.2655
   3.400   0.4195   0.01222   0.00528  -0.0064  0.6389  1.0000  -1.5578   0.0000   0.0000   0.0000   0.2627
   3.500   0.4278   0.01238   0.00538  -0.0055  0.6060  1.0000  -1.6199   0.0000   0.0000   0.0000   0.2602
   3.600   0.4359   0.01257   0.00545  -0.0046  0.5698  1.0000  -1.6810   0.0000   0.0000   0.0000   0.2579
   3.700   0.4438   0.01279   0.00553  -0.0037  0.5293  1.0000  -1.7413   0.0000   0.0000   0.0000   0.2557
   3.800   0.4513   0.01307   0.00561  -0.0028  0.4821  1.0000  -1.8003   0.0000   0.0000   0.0000   0.2534
   3.900   0.4583   0.01344   0.00569  -0.0019  0.4248  1.0000  -1.8571   0.0000   0.0000   0.0000   0.2513
   4.000   0.4647   0.01394   0.00583  -0.0010  0.3505  1.0000  -1.9103   0.0000   0.0000   0.0000   0.2492
   4.100   0.4703   0.01472   0.00605  -0.0002  0.2592  1.0000  -1.9558   0.0000   0.0000   0.0000   0.2474
   4.200   0.4762   0.01565   0.00645   0.0005  0.1903  1.0000  -2.0020   0.0000   0.0000   0.0000   0.2459
   4.300   0.4840   0.01634   0.00694   0.0011  0.1590  1.0000  -2.0541   0.0000   0.0000   0.0000   0.2446
   4.400   0.4920   0.01697   0.00741   0.0016  0.1436  1.0000  -2.1112   0.0000   0.0000   0.0000   0.2434
   4.500   0.5012   0.01739   0.00782   0.0021  0.1331  1.0000  -2.1748   0.0000   0.0000   0.0000   0.2425
   4.600   0.5092   0.01810   0.00839   0.0026  0.1251  1.0000  -2.2345   0.0000   0.0000   0.0000   0.2415
   4.700   0.5189   0.01851   0.00886   0.0031  0.1198  1.0000  -2.2974   0.0000   0.0000   0.0000   0.2407
   4.800   0.5286   0.01895   0.00933   0.0035  0.1146  1.0000  -2.3618   0.0000   0.0000   0.0000   0.2399
   4.900   0.5381   0.01943   0.00980   0.0039  0.1102  1.0000  -2.4281   0.0000   0.0000   0.0000   0.2393
   5.000   0.5476   0.02002   0.01035   0.0042  0.1066  1.0000  -2.4944   0.0000   0.0000   0.0000   0.2387
   5.100   0.5570   0.02097   0.01125   0.0046  0.1034  1.0000  -2.5523   0.0000   0.0000   0.0000   0.2381
   5.200   0.5671   0.02188   0.01219   0.0049  0.1015  1.0000  -2.6069   0.0000   0.0000   0.0000   0.2376
   5.300   0.5775   0.02245   0.01294   0.0053  0.1003  1.0000  -2.6692   0.0000   0.0000   0.0000   0.2371
   5.400   0.5878   0.02299   0.01359   0.0056  0.0986  1.0000  -2.7309   0.0000   0.0000   0.0000   0.2366
   5.500   0.5979   0.02343   0.01413   0.0060  0.0955  1.0000  -2.7975   0.0000   0.0000   0.0000   0.2362
   5.600   0.6076   0.02380   0.01456   0.0063  0.0914  1.0000  -2.8706   0.0000   0.0000   0.0000   0.2358
   5.700   0.6172   0.02428   0.01508   0.0065  0.0882  1.0000  -2.9412   0.0000   0.0000   0.0000   0.2355
   5.800   0.6269   0.02499   0.01585   0.0069  0.0862  1.0000  -3.0121   0.0000   0.0000   0.0000   0.2351
   5.900   0.6364   0.02584   0.01674   0.0071  0.0843  1.0000  -3.0866   0.0000   0.0000   0.0000   0.2347
   6.000   0.6456   0.02704   0.01801   0.0074  0.0826  1.0000  -3.1491   0.0000   0.0000   0.0000   0.2344
   6.100   0.6540   0.02884   0.01996   0.0078  0.0810  1.0000  -3.1860   0.0000   0.0000   0.0000   0.2340
   6.200   0.6621   0.03025   0.02157   0.0082  0.0795  1.0000  -3.2224   0.0000   0.0000   0.0000   0.2334
   6.300   0.6717   0.03039   0.02192   0.0088  0.0770  1.0000  -3.2933   0.0000   0.0000   0.0000   0.2327
   6.400   0.6807   0.03088   0.02259   0.0092  0.0738  1.0000  -3.3574   0.0000   0.0000   0.0000   0.2321
   6.500   0.6893   0.03175   0.02364   0.0097  0.0714  1.0000  -3.4087   0.0000   0.0000   0.0000   0.2316
   6.600   0.6973   0.03297   0.02506   0.0102  0.0704  1.0000  -3.4400   0.0000   0.0000   0.0000   0.2310
   6.700   0.7049   0.03430   0.02660   0.0107  0.0696  1.0000  -3.4642   0.0000   0.0000   0.0000   0.2303
   6.800   0.7120   0.03576   0.02827   0.0113  0.0691  1.0000  -3.4797   0.0000   0.0000   0.0000   0.2297
   6.900   0.7186   0.03738   0.03011   0.0118  0.0690  1.0000  -3.4845   0.0000   0.0000   0.0000   0.2291
   7.000   0.7244   0.03918   0.03215   0.0124  0.0693  1.0000  -3.4772   0.0000   0.0000   0.0000   0.2284
   7.100   0.7295   0.04117   0.03439   0.0129  0.0699  1.0000  -3.4584   0.0000   0.0000   0.0000   0.2278
   7.200   0.7337   0.04332   0.03677   0.0133  0.0710  1.0000  -3.4315   0.0000   0.0000   0.0000   0.2273
   7.300   0.7374   0.04557   0.03924   0.0137  0.0723  1.0000  -3.4018   0.0000   0.0000   0.0000   0.2268
   7.400   0.7406   0.04778   0.04164   0.0140  0.0734  1.0000  -3.3767   0.0000   0.0000   0.0000   0.2265
   7.500   0.7435   0.04995   0.04396   0.0143  0.0742  1.0000  -3.3553   0.0000   0.0000   0.0000   0.2262
   7.600   0.7460   0.05208   0.04624   0.0144  0.0747  1.0000  -3.3350   0.0000   0.0000   0.0000   0.2261
   7.700   0.7479   0.05420   0.04850   0.0145  0.0751  1.0000  -3.3142   0.0000   0.0000   0.0000   0.2260
   7.800   0.7494   0.05635   0.05078   0.0145  0.0754  1.0000  -3.2921   0.0000   0.0000   0.0000   0.2260
   7.900   0.7503   0.05855   0.05310   0.0145  0.0758  1.0000  -3.2689   0.0000   0.0000   0.0000   0.2261
   8.000   0.7508   0.06084   0.05548   0.0143  0.0765  1.0000  -3.2461   0.0000   0.0000   0.0000   0.2262
   8.100   0.7511   0.06336   0.05805   0.0142  0.0776  1.0000  -3.2271   0.0000   0.0000   0.0000   0.2264
   8.300   0.4622   0.01334   0.00905   0.0440  0.0769  1.0000  -2.5523   0.0000   0.0000   0.0000   0.1527
   8.400   0.4510   0.01402   0.00976   0.0448  0.0772  1.0000  -2.5193   0.0000   0.0000   0.0000   0.1487
   8.500   0.4401   0.01477   0.01054   0.0453  0.0775  1.0000  -2.4847   0.0000   0.0000   0.0000   0.1451
   8.600   0.4296   0.01558   0.01138   0.0455  0.0779  1.0000  -2.4487   0.0000   0.0000   0.0000   0.1421
   8.700   0.4197   0.01649   0.01231   0.0456  0.0783  1.0000  -2.4114   0.0000   0.0000   0.0000   0.1395
   8.800   0.4104   0.01749   0.01334   0.0454  0.0787  1.0000  -2.3731   0.0000   0.0000   0.0000   0.1375
   8.900   0.4024   0.01866   0.01451   0.0451  0.0792  1.0000  -2.3351   0.0000   0.0000   0.0000   0.1362
   9.000   0.2369   0.03349   0.02940   0.0204  0.2069  1.0000  -0.8865   0.0000   0.0000   0.0000   0.1664
   9.200   0.7165   0.09908   0.09439  -0.0020  0.1235  1.0000  -2.4403   0.0000   0.0000   0.0000   0.2479
   9.300   0.7068   0.10156   0.09683  -0.0064  0.1231  1.0000  -2.3644   0.0000   0.0000   0.0000   0.2540
   9.400   0.6984   0.10370   0.09893  -0.0101  0.1225  1.0000  -2.2932   0.0000   0.0000   0.0000   0.2594
   9.500   0.6908   0.10569   0.10088  -0.0133  0.1215  1.0000  -2.2276   0.0000   0.0000   0.0000   0.2641
   9.600   0.6847   0.10758   0.10273  -0.0160  0.1199  1.0000  -2.1719   0.0000   0.0000   0.0000   0.2681
   9.700   0.6807   0.10936   0.10449  -0.0180  0.1178  1.0000  -2.1333   0.0000   0.0000   0.0000   0.2710
   9.800   0.6789   0.11101   0.10612  -0.0192  0.1152  1.0000  -2.1132   0.0000   0.0000   0.0000   0.2728
   9.900   0.6794   0.11246   0.10756  -0.0197  0.1123  1.0000  -2.1131   0.0000   0.0000   0.0000   0.2735
  10.000   0.6827   0.11369   0.10880  -0.0195  0.1095  1.0000  -2.1366   0.0000   0.0000   0.0000   0.2729
  10.100   0.6874   0.11499   0.11010  -0.0189  0.1076  1.0000  -2.1674   0.0000   0.0000   0.0000   0.2718
  10.200   0.6940   0.11632   0.11145  -0.0177  0.1060  1.0000  -2.2124   0.0000   0.0000   0.0000   0.2697
  10.300   0.7072   0.11783   0.11300  -0.0144  0.1041  1.0000  -2.3109   0.0000   0.0000   0.0000   0.2645
  10.400   0.7182   0.12325   0.11842  -0.0096  0.1021  1.0000  -2.3918   0.0000   0.0000   0.0000   0.2576
  10.500   0.7152   0.12510   0.12025  -0.0116  0.1020  1.0000  -2.3527   0.0000   0.0000   0.0000   0.2603
  10.600   0.7120   0.12679   0.12192  -0.0135  0.1018  1.0000  -2.3126   0.0000   0.0000   0.0000   0.2630
  10.700   0.7070   0.12840   0.12350  -0.0158  0.1016  1.0000  -2.2624   0.0000   0.0000   0.0000   0.2663
  10.800   0.7017   0.12981   0.12488  -0.0183  0.1012  1.0000  -2.2078   0.0000   0.0000   0.0000   0.2699
  10.900   0.6954   0.13096   0.12599  -0.0211  0.1006  1.0000  -2.1436   0.0000   0.0000   0.0000   0.2741
  11.000   0.6881   0.13204   0.12704  -0.0242  0.0993  1.0000  -2.0711   0.0000   0.0000   0.0000   0.2789
  11.100   0.6836   0.13339   0.12836  -0.0265  0.0975  1.0000  -2.0194   0.0000   0.0000   0.0000   0.2823
  11.200   0.6819   0.13492   0.12987  -0.0279  0.0956  1.0000  -1.9901   0.0000   0.0000   0.0000   0.2844
  11.300   0.6815   0.13648   0.13142  -0.0289  0.0939  1.0000  -1.9725   0.0000   0.0000   0.0000   0.2857
  11.400   0.6818   0.13804   0.13297  -0.0296  0.0922  1.0000  -1.9618   0.0000   0.0000   0.0000   0.2867
  11.500   0.6827   0.13957   0.13450  -0.0301  0.0907  1.0000  -1.9563   0.0000   0.0000   0.0000   0.2874
  11.600   0.6843   0.14109   0.13601  -0.0306  0.0892  1.0000  -1.9558   0.0000   0.0000   0.0000   0.2878
  11.700   0.6864   0.14258   0.13751  -0.0308  0.0878  1.0000  -1.9607   0.0000   0.0000   0.0000   0.2879
  11.800   0.6893   0.14408   0.13900  -0.0309  0.0864  1.0000  -1.9724   0.0000   0.0000   0.0000   0.2877
  11.900   0.6934   0.14558   0.14051  -0.0306  0.0851  1.0000  -1.9936   0.0000   0.0000   0.0000   0.2870
  12.000   0.6992   0.14717   0.14212  -0.0299  0.0838  1.0000  -2.0300   0.0000   0.0000   0.0000   0.2855
  12.100   0.7084   0.14914   0.14412  -0.0281  0.0824  1.0000  -2.0949   0.0000   0.0000   0.0000   0.2824
  12.200   0.7196   0.15654   0.15152  -0.0239  0.0802  1.0000  -2.1755   0.0000   0.0000   0.0000   0.2761
  12.300   0.7195   0.15817   0.15314  -0.0250  0.0801  1.0000  -2.1505   0.0000   0.0000   0.0000   0.2775
  12.400   0.7195   0.15975   0.15470  -0.0261  0.0800  1.0000  -2.1256   0.0000   0.0000   0.0000   0.2790
  12.500   0.7194   0.16124   0.15619  -0.0272  0.0799  1.0000  -2.1004   0.0000   0.0000   0.0000   0.2804
  12.600   0.7185   0.16264   0.15758  -0.0285  0.0798  1.0000  -2.0701   0.0000   0.0000   0.0000   0.2822
  12.700   0.7171   0.16394   0.15885  -0.0300  0.0796  1.0000  -2.0368   0.0000   0.0000   0.0000   0.2842
  12.800   0.7157   0.16510   0.16000  -0.0315  0.0794  1.0000  -2.0017   0.0000   0.0000   0.0000   0.2863
  12.900   0.7140   0.16609   0.16097  -0.0331  0.0791  1.0000  -1.9631   0.0000   0.0000   0.0000   0.2886
  13.000   0.7114   0.16690   0.16176  -0.0350  0.0787  1.0000  -1.9184   0.0000   0.0000   0.0000   0.2914
  13.100   0.7083   0.16758   0.16242  -0.0371  0.0779  1.0000  -1.8702   0.0000   0.0000   0.0000   0.2943
  13.200   0.7056   0.16833   0.16315  -0.0389  0.0769  1.0000  -1.8266   0.0000   0.0000   0.0000   0.2970
  13.300   0.7044   0.16934   0.16415  -0.0403  0.0757  1.0000  -1.7940   0.0000   0.0000   0.0000   0.2989
  13.400   0.7046   0.17060   0.16540  -0.0413  0.0743  1.0000  -1.7710   0.0000   0.0000   0.0000   0.3004
  13.500   0.7054   0.17198   0.16678  -0.0422  0.0729  1.0000  -1.7546   0.0000   0.0000   0.0000   0.3014
  13.600   0.7068   0.17341   0.16820  -0.0429  0.0714  1.0000  -1.7430   0.0000   0.0000   0.0000   0.3023
  13.700   0.7085   0.17484   0.16963  -0.0436  0.0699  1.0000  -1.7355   0.0000   0.0000   0.0000   0.3029
  13.800   0.7106   0.17627   0.17106  -0.0441  0.0684  1.0000  -1.7326   0.0000   0.0000   0.0000   0.3034
  13.900   0.7130   0.17768   0.17247  -0.0445  0.0669  1.0000  -1.7375   0.0000   0.0000   0.0000   0.3037
  14.000   0.7161   0.17908   0.17387  -0.0447  0.0653  1.0000  -1.7608   0.0000   0.0000   0.0000   0.3036
  14.100   0.7203   0.18054   0.17542  -0.0446  0.0636  1.0000  -1.7973   0.0000   0.0000   0.0000   0.3029
  14.200   0.7282   0.18248   0.17738  -0.0435  0.0617  1.0000  -1.8804   0.0000   0.0000   0.0000   0.3006
  14.300   0.7452   0.18851   0.18347  -0.0390  0.0594  1.0000  -2.0705   0.0000   0.0000   0.0000   0.2933
  14.400   0.7447   0.19405   0.18896  -0.0393  0.0587  1.0000  -2.0389   0.0000   0.0000   0.0000   0.2937
  14.600   0.7477   0.19712   0.19201  -0.0411  0.0586  1.0000  -2.0207   0.0000   0.0000   0.0000   0.2957
  14.800   0.3742   0.10079   0.09645   0.0036  0.0800  1.0000  -1.0909   0.0000   0.0000   0.0000   0.2394
  14.900   0.3743   0.10155   0.09721   0.0028  0.0799  1.0000  -1.0711   0.0000   0.0000   0.0000   0.2415
  15.000   0.3743   0.10223   0.09788   0.0020  0.0797  1.0000  -1.0504   0.0000   0.0000   0.0000   0.2437


