xflr5 v6.61

 Calculated polar for: SD7032-099-88

 1 1 Reynolds number fixed          Mach number fixed         

 xtrf =   1.000 (top)        1.000 (bottom)
 Mach =   0.000     Re =     0.150 e 6     Ncrit =   9.000

  alpha     CL        CD       CDp       Cm    Top Xtr Bot Xtr   Cpmin    Chinge    XCp    
 ------- -------- --------- --------- -------- ------- ------- -------- --------- ---------
 -10.000  -0.3106   0.11277   0.10857  -0.0340  1.0000  0.0434  -1.5117   0.0000   0.0000   0.0000   0.1309
  -9.800  -0.3090   0.11057   0.10640  -0.0346  1.0000  0.0448  -1.5332   0.0000   0.0000   0.0000   0.1286
  -9.600  -0.3085   0.10850   0.10437  -0.0354  1.0000  0.0463  -1.5660   0.0000   0.0000   0.0000   0.1261
  -9.400  -0.3099   0.10676   0.10267  -0.0366  1.0000  0.0478  -1.6185   0.0000   0.0000   0.0000   0.1230
  -9.200  -0.3133   0.10553   0.10151  -0.0382  1.0000  0.0490  -1.6879   0.0000   0.0000   0.0000   0.1195
  -9.000  -0.3170   0.10435   0.10039  -0.0394  1.0000  0.0496  -1.7476   0.0000   0.0000   0.0000   0.1176
  -8.800  -0.3196   0.10293   0.09904  -0.0398  1.0000  0.0500  -1.7869   0.0000   0.0000   0.0000   0.1178
  -8.600  -0.3236   0.10139   0.09756  -0.0397  1.0000  0.0501  -1.8238   0.0000   0.0000   0.0000   0.1200
  -8.400  -0.3296   0.09988   0.09611  -0.0392  1.0000  0.0502  -1.8603   0.0000   0.0000   0.0000   0.1242
  -8.200  -0.3377   0.09849   0.09478  -0.0381  1.0000  0.0503  -1.8968   0.0000   0.0000   0.0000   0.1306
  -8.000  -0.3481   0.09726   0.09362  -0.0366  1.0000  0.0504  -1.9336   0.0000   0.0000   0.0000   0.1387
  -7.800  -0.3607   0.09618   0.09261  -0.0348  1.0000  0.0504  -1.9709   0.0000   0.0000   0.0000   0.1479
  -7.200  -0.3632   0.08636   0.08292  -0.0269  1.0000  0.0567  -1.8356   0.0000   0.0000   0.0000   0.1708
  -7.000  -0.3752   0.08546   0.08208  -0.0243  1.0000  0.0575  -1.8440   0.0000   0.0000   0.0000   0.1803
  -6.800  -0.3877   0.08443   0.08112  -0.0222  1.0000  0.0582  -1.8597   0.0000   0.0000   0.0000   0.1883
  -6.600  -0.3962   0.08298   0.07972  -0.0211  1.0000  0.0594  -1.8713   0.0000   0.0000   0.0000   0.1924
  -6.400  -0.4040   0.08130   0.07809  -0.0207  1.0000  0.0606  -1.8887   0.0000   0.0000   0.0000   0.1948
  -6.200  -0.4105   0.07937   0.07621  -0.0209  1.0000  0.0620  -1.9115   0.0000   0.0000   0.0000   0.1953
  -6.000  -0.3957   0.07522   0.07203  -0.0285  0.9963  0.0658  -1.9517   0.0000   0.0000   0.0000   0.1743
  -5.800  -0.3491   0.07001   0.06638  -0.0495  0.9877  0.0709  -2.1460   0.0000   0.0000   0.0000   0.1042
  -5.600  -0.3424   0.06126   0.05762  -0.0545  0.9825  0.0731  -2.2181   0.0000   0.0000   0.0000   0.0868
  -5.400  -0.3240   0.05846   0.05492  -0.0550  0.9784  0.0754  -2.0859   0.0000   0.0000   0.0000   0.0761
  -5.200  -0.2994   0.05585   0.05230  -0.0576  0.9746  0.0786  -1.9741   0.0000   0.0000   0.0000   0.0533
  -4.600  -0.2216   0.04452   0.04030  -0.0720  0.9575  0.0982  -1.8887   0.0000   0.0000   0.0000  -0.0801
  -4.400  -0.1926   0.04198   0.03771  -0.0748  0.9537  0.1028  -1.7773   0.0000   0.0000   0.0000  -0.1441
  -4.200  -0.1459   0.03154   0.02580  -0.0800  0.9516  0.0479  -2.2812   0.0000   0.0000   0.0000  -0.3074
  -4.000  -0.1116   0.02764   0.02138  -0.0830  0.9493  0.0449  -2.3056   0.0000   0.0000   0.0000  -0.5062
  -3.800  -0.0932   0.02559   0.01896  -0.0823  0.9415  0.0443  -2.3416   0.0000   0.0000   0.0000  -0.6478
  -3.600  -0.0638   0.02373   0.01673  -0.0834  0.9364  0.0456  -2.3496   0.0000   0.0000   0.0000  -1.0766
  -3.400  -0.0299   0.02289   0.01559  -0.0854  0.9323  0.0516  -2.2650   0.0000   0.0000   0.0000  -2.6428
  -3.200   0.0034   0.02059   0.01307  -0.0874  0.9296  0.0552  -2.2358   0.0000   0.0000   0.0000  26.1414
  -3.000   0.0400   0.01945   0.01187  -0.0898  0.9271  0.0604  -2.1215   0.0000   0.0000   0.0000   2.5198
  -2.800   0.0607   0.01905   0.01138  -0.0894  0.9190  0.0676  -2.0075   0.0000   0.0000   0.0000   1.7375
  -2.600   0.0891   0.01815   0.01041  -0.0902  0.9132  0.0731  -1.8935   0.0000   0.0000   0.0000   1.2722
  -2.400   0.1227   0.01713   0.00944  -0.0922  0.9092  0.0865  -1.7542   0.0000   0.0000   0.0000   1.0078
  -2.200   0.1578   0.01569   0.00849  -0.0947  0.9062  0.1894  -1.6331   0.0000   0.0000   0.0000   0.8544
  -2.000   0.1892   0.01438   0.00828  -0.0968  0.9034  0.4619  -1.4518   0.0000   0.0000   0.0000   0.7649
  -1.800   0.2029   0.01399   0.00833  -0.0948  0.8933  0.5906  -1.3227   0.0000   0.0000   0.0000   0.7199
  -1.600   0.2249   0.01355   0.00825  -0.0937  0.8870  0.7143  -1.1624   0.0000   0.0000   0.0000   0.6689
  -1.400   0.2456   0.01313   0.00808  -0.0917  0.8824  0.8293  -1.0053   0.0000   0.0000   0.0000   0.6250
  -1.200   0.2783   0.01271   0.00773  -0.0920  0.8795  0.9307  -0.8321   0.0000   0.0000   0.0000   0.5817
  -1.000   0.3200   0.01252   0.00742  -0.0958  0.8715  1.0000  -0.6792   0.0000   0.0000   0.0000   0.5500
  -0.800   0.3448   0.01237   0.00712  -0.0961  0.8634  1.0000  -0.5986   0.0000   0.0000   0.0000   0.5289
  -0.600   0.3736   0.01215   0.00675  -0.0969  0.8579  1.0000  -0.6223   0.0000   0.0000   0.0000   0.5093
  -0.400   0.3937   0.01213   0.00660  -0.0964  0.8479  1.0000  -0.6420   0.0000   0.0000   0.0000   0.4944
  -0.200   0.4172   0.01200   0.00635  -0.0962  0.8393  1.0000  -0.6644   0.0000   0.0000   0.0000   0.4800
   0.000   0.4442   0.01179   0.00602  -0.0966  0.8332  1.0000  -0.6892   0.0000   0.0000   0.0000   0.4665
   0.200   0.4627   0.01182   0.00597  -0.0957  0.8212  1.0000  -0.7082   0.0000   0.0000   0.0000   0.4557
   0.400   0.4871   0.01167   0.00571  -0.0956  0.8129  1.0000  -0.7331   0.0000   0.0000   0.0000   0.4449
   0.600   0.5085   0.01164   0.00560  -0.0952  0.8026  1.0000  -0.7563   0.0000   0.0000   0.0000   0.4355
   0.800   0.5309   0.01157   0.00544  -0.0948  0.7920  1.0000  -0.7819   0.0000   0.0000   0.0000   0.4267
   1.000   0.5537   0.01151   0.00528  -0.0945  0.7824  1.0000  -0.8087   0.0000   0.0000   0.0000   0.4186
   1.200   0.5748   0.01150   0.00520  -0.0940  0.7700  1.0000  -0.8344   0.0000   0.0000   0.0000   0.4113
   1.400   0.5976   0.01147   0.00507  -0.0936  0.7597  1.0000  -0.8642   0.0000   0.0000   0.0000   0.4043
   1.600   0.6185   0.01150   0.00503  -0.0931  0.7465  1.0000  -0.8925   0.0000   0.0000   0.0000   0.3980
   1.800   0.6407   0.01152   0.00496  -0.0928  0.7349  1.0000  -0.9220   0.0000   0.0000   0.0000   0.3920
   2.000   0.6619   0.01156   0.00494  -0.0923  0.7216  1.0000  -0.9510   0.0000   0.0000   0.0000   0.3865
   2.200   0.6833   0.01164   0.00496  -0.0919  0.7084  1.0000  -0.9823   0.0000   0.0000   0.0000   0.3813
   2.400   0.7051   0.01170   0.00491  -0.0915  0.6954  1.0000  -1.0155   0.0000   0.0000   0.0000   0.3764
   2.600   0.7257   0.01181   0.00499  -0.0910  0.6807  1.0000  -1.0474   0.0000   0.0000   0.0000   0.3719
   2.800   0.7476   0.01192   0.00497  -0.0906  0.6678  1.0000  -1.0810   0.0000   0.0000   0.0000   0.3675
   3.000   0.7679   0.01204   0.00505  -0.0901  0.6521  1.0000  -1.1132   0.0000   0.0000   0.0000   0.3635
   3.200   0.7886   0.01219   0.00513  -0.0897  0.6372  1.0000  -1.1460   0.0000   0.0000   0.0000   0.3596
   3.400   0.8099   0.01236   0.00516  -0.0892  0.6233  1.0000  -1.1827   0.0000   0.0000   0.0000   0.3559
   3.600   0.8298   0.01252   0.00536  -0.0887  0.6071  1.0000  -1.2189   0.0000   0.0000   0.0000   0.3524
   3.800   0.8503   0.01271   0.00548  -0.0883  0.5923  1.0000  -1.2563   0.0000   0.0000   0.0000   0.3491
   4.000   0.8709   0.01292   0.00558  -0.0878  0.5776  1.0000  -1.2942   0.0000   0.0000   0.0000   0.3459
   4.200   0.8906   0.01312   0.00577  -0.0873  0.5617  1.0000  -1.3351   0.0000   0.0000   0.0000   0.3429
   4.400   0.9109   0.01336   0.00593  -0.0868  0.5475  1.0000  -1.3784   0.0000   0.0000   0.0000   0.3400
   4.600   0.9309   0.01359   0.00610  -0.0863  0.5325  1.0000  -1.4221   0.0000   0.0000   0.0000   0.3372
   4.800   0.9504   0.01383   0.00633  -0.0858  0.5170  1.0000  -1.4720   0.0000   0.0000   0.0000   0.3345
   5.000   0.9703   0.01412   0.00657  -0.0853  0.5027  1.0000  -1.5230   0.0000   0.0000   0.0000   0.3319
   5.200   0.9896   0.01437   0.00681  -0.0847  0.4875  1.0000  -1.5808   0.0000   0.0000   0.0000   0.3294
   5.400   1.0091   0.01467   0.00709  -0.0842  0.4734  1.0000  -1.6412   0.0000   0.0000   0.0000   0.3270
   5.600   1.0286   0.01500   0.00732  -0.0837  0.4597  1.0000  -1.7109   0.0000   0.0000   0.0000   0.3247
   5.800   1.0473   0.01526   0.00763  -0.0831  0.4443  1.0000  -1.7823   0.0000   0.0000   0.0000   0.3224
   6.000   1.0662   0.01561   0.00792  -0.0825  0.4303  1.0000  -1.8555   0.0000   0.0000   0.0000   0.3202
   6.200   1.0848   0.01593   0.00821  -0.0819  0.4161  1.0000  -1.9290   0.0000   0.0000   0.0000   0.3181
   6.400   1.1032   0.01627   0.00857  -0.0813  0.4018  1.0000  -2.0026   0.0000   0.0000   0.0000   0.3160
   6.600   1.1216   0.01669   0.00893  -0.0806  0.3882  1.0000  -2.0801   0.0000   0.0000   0.0000   0.3140
   6.800   1.1392   0.01698   0.00931  -0.0799  0.3734  1.0000  -2.1668   0.0000   0.0000   0.0000   0.3119
   7.000   1.1569   0.01739   0.00969  -0.0792  0.3597  1.0000  -2.2552   0.0000   0.0000   0.0000   0.3100
   7.200   1.1741   0.01778   0.01004  -0.0784  0.3457  1.0000  -2.3438   0.0000   0.0000   0.0000   0.3080
   7.400   1.1911   0.01816   0.01048  -0.0775  0.3315  1.0000  -2.4449   0.0000   0.0000   0.0000   0.3061
   7.600   1.2078   0.01866   0.01088  -0.0767  0.3182  1.0000  -2.5486   0.0000   0.0000   0.0000   0.3043
   7.800   1.2239   0.01900   0.01132  -0.0758  0.3040  1.0000  -2.6511   0.0000   0.0000   0.0000   0.3024
   8.000   1.2397   0.01949   0.01178  -0.0749  0.2907  1.0000  -2.8113   0.0000   0.0000   0.0000   0.3006
   8.200   1.2548   0.01993   0.01222  -0.0738  0.2772  1.0000  -3.0004   0.0000   0.0000   0.0000   0.2988
   8.400   1.2700   0.02039   0.01280  -0.0728  0.2638  1.0000  -3.1863   0.0000   0.0000   0.0000   0.2970
   8.800   1.2982   0.02139   0.01384  -0.0705  0.2379  1.0000  -3.5684   0.0000   0.0000   0.0000   0.2934
   9.000   1.3113   0.02206   0.01443  -0.0692  0.2262  1.0000  -3.7604   0.0000   0.0000   0.0000   0.2916
   9.200   1.3243   0.02253   0.01503  -0.0679  0.2136  1.0000  -3.9546   0.0000   0.0000   0.0000   0.2898
   9.400   1.3356   0.02322   0.01569  -0.0664  0.2014  1.0000  -4.1425   0.0000   0.0000   0.0000   0.2879
   9.600   1.3456   0.02380   0.01631  -0.0648  0.1883  1.0000  -4.3268   0.0000   0.0000   0.0000   0.2860
   9.800   1.3551   0.02451   0.01706  -0.0631  0.1754  1.0000  -4.5074   0.0000   0.0000   0.0000   0.2841
  10.000   1.3604   0.02532   0.01779  -0.0608  0.1634  1.0000  -4.6675   0.0000   0.0000   0.0000   0.2820
  10.200   1.3675   0.02605   0.01863  -0.0587  0.1514  1.0000  -4.8346   0.0000   0.0000   0.0000   0.2799
  10.400   1.3701   0.02719   0.01963  -0.0562  0.1403  1.0000  -4.9765   0.0000   0.0000   0.0000   0.2777
  10.600   1.3764   0.02797   0.02057  -0.0542  0.1296  1.0000  -5.1385   0.0000   0.0000   0.0000   0.2758
  10.800   1.3777   0.02926   0.02173  -0.0519  0.1198  1.0000  -5.2726   0.0000   0.0000   0.0000   0.2737
  11.000   1.3834   0.03024   0.02292  -0.0500  0.1110  1.0000  -5.4336   0.0000   0.0000   0.0000   0.2719
  11.200   1.3859   0.03140   0.02408  -0.0481  0.1033  1.0000  -5.5775   0.0000   0.0000   0.0000   0.2701
  11.400   1.3890   0.03301   0.02567  -0.0463  0.0964  1.0000  -5.7133   0.0000   0.0000   0.0000   0.2684
  11.600   1.3941   0.03419   0.02701  -0.0447  0.0907  1.0000  -5.8651   0.0000   0.0000   0.0000   0.2668
  11.800   1.3969   0.03552   0.02841  -0.0431  0.0855  1.0000  -6.0075   0.0000   0.0000   0.0000   0.2653
  12.000   1.3995   0.03762   0.03040  -0.0417  0.0792  1.0000  -6.1365   0.0000   0.0000   0.0000   0.2639
  12.200   1.4031   0.03899   0.03196  -0.0403  0.0758  1.0000  -6.2768   0.0000   0.0000   0.0000   0.2625
  12.400   1.4058   0.04047   0.03359  -0.0391  0.0718  1.0000  -6.4125   0.0000   0.0000   0.0000   0.2612
  12.600   1.4078   0.04211   0.03533  -0.0379  0.0681  1.0000  -6.5431   0.0000   0.0000   0.0000   0.2600
  12.800   1.4086   0.04400   0.03727  -0.0369  0.0648  1.0000  -6.6636   0.0000   0.0000   0.0000   0.2589
  13.000   1.4141   0.04689   0.04016  -0.0359  0.0598  1.0000  -6.7784   0.0000   0.0000   0.0000   0.2578
  13.200   1.4125   0.04860   0.04207  -0.0350  0.0579  1.0000  -6.8826   0.0000   0.0000   0.0000   0.2568
  13.400   1.4097   0.05059   0.04425  -0.0343  0.0551  1.0000  -6.9764   0.0000   0.0000   0.0000   0.2560
  13.600   1.4065   0.05271   0.04648  -0.0339  0.0520  1.0000  -7.0730   0.0000   0.0000   0.0000   0.2553
  13.800   1.4027   0.05500   0.04883  -0.0338  0.0492  1.0000  -7.1686   0.0000   0.0000   0.0000   0.2549
  14.000   1.3980   0.05771   0.05157  -0.0338  0.0463  1.0000  -7.2478   0.0000   0.0000   0.0000   0.2546
  14.200   1.3930   0.06147   0.05544  -0.0334  0.0430  1.0000  -7.2688   0.0000   0.0000   0.0000   0.2541
  14.400   1.3879   0.06423   0.05839  -0.0339  0.0415  1.0000  -7.3267   0.0000   0.0000   0.0000   0.2540
  14.600   1.3815   0.06742   0.06176  -0.0345  0.0396  1.0000  -7.3644   0.0000   0.0000   0.0000   0.2542
  14.800   1.3746   0.07080   0.06529  -0.0355  0.0374  1.0000  -7.3988   0.0000   0.0000   0.0000   0.2546
  15.000   1.3679   0.07424   0.06882  -0.0368  0.0353  1.0000  -7.4411   0.0000   0.0000   0.0000   0.2553


