xflr5 v6.61

 Calculated polar for: SD7032-099-88

 1 1 Reynolds number fixed          Mach number fixed         

 xtrf =   1.000 (top)        1.000 (bottom)
 Mach =   0.000     Re =     0.350 e 6     Ncrit =   9.000

  alpha     CL        CD       CDp       Cm    Top Xtr Bot Xtr   Cpmin    Chinge    XCp    
 ------- -------- --------- --------- -------- ------- ------- -------- --------- ---------
 -10.000  -0.3117   0.10867   0.10588  -0.0343  1.0000  0.0183  -1.6187   0.0000   0.0000   0.0000   0.1301
  -9.800  -0.3098   0.10625   0.10348  -0.0349  1.0000  0.0188  -1.6431   0.0000   0.0000   0.0000   0.1276
  -9.600  -0.3083   0.10383   0.10109  -0.0356  1.0000  0.0193  -1.6750   0.0000   0.0000   0.0000   0.1253
  -9.400  -0.3076   0.10146   0.09875  -0.0362  1.0000  0.0199  -1.7190   0.0000   0.0000   0.0000   0.1230
  -9.200  -0.3081   0.09922   0.09655  -0.0370  1.0000  0.0205  -1.7791   0.0000   0.0000   0.0000   0.1208
  -9.000  -0.3089   0.09724   0.09461  -0.0376  1.0000  0.0210  -1.8369   0.0000   0.0000   0.0000   0.1196
  -8.800  -0.3104   0.09549   0.09290  -0.0374  1.0000  0.0212  -1.8693   0.0000   0.0000   0.0000   0.1212
  -8.600  -0.3145   0.09382   0.09127  -0.0366  1.0000  0.0213  -1.9024   0.0000   0.0000   0.0000   0.1256
  -8.400  -0.3210   0.09230   0.08979  -0.0353  1.0000  0.0214  -1.9365   0.0000   0.0000   0.0000   0.1325
  -8.200  -0.3294   0.09091   0.08845  -0.0336  1.0000  0.0215  -1.9716   0.0000   0.0000   0.0000   0.1408
  -8.000  -0.3392   0.08961   0.08719  -0.0317  1.0000  0.0215  -2.0076   0.0000   0.0000   0.0000   0.1496
  -7.800  -0.3415   0.08740   0.08501  -0.0323  0.9991  0.0215  -2.0495   0.0000   0.0000   0.0000   0.1488
  -7.600  -0.3281   0.08327   0.08089  -0.0378  0.9957  0.0216  -2.1066   0.0000   0.0000   0.0000   0.1281
  -7.400  -0.3141   0.07887   0.07649  -0.0442  0.9916  0.0216  -2.1749   0.0000   0.0000   0.0000   0.1025
  -7.200  -0.3008   0.07409   0.07172  -0.0511  0.9862  0.0217  -2.2558   0.0000   0.0000   0.0000   0.0734
  -7.000  -0.2822   0.06807   0.06568  -0.0607  0.9805  0.0217  -2.3682   0.0000   0.0000   0.0000   0.0277
  -6.800  -0.2718   0.05584   0.05332  -0.0760  0.9749  0.0224  -2.7799   0.0000   0.0000   0.0000  -0.0372
  -6.600  -0.2537   0.05058   0.04796  -0.0829  0.9723  0.0235  -2.7845   0.0000   0.0000   0.0000  -0.0844
  -6.400  -0.2366   0.04871   0.04606  -0.0850  0.9683  0.0245  -2.6477   0.0000   0.0000   0.0000  -0.1170
  -6.200  -0.2197   0.04600   0.04327  -0.0877  0.9626  0.0257  -2.5791   0.0000   0.0000   0.0000  -0.1574
  -6.000  -0.1963   0.04240   0.03951  -0.0920  0.9587  0.0275  -2.5467   0.0000   0.0000   0.0000  -0.2279
  -5.800  -0.1692   0.03843   0.03528  -0.0965  0.9557  0.0300  -2.5523   0.0000   0.0000   0.0000  -0.3304
  -5.600  -0.1320   0.03935   0.03588  -0.0985  0.9534  0.0336  -2.4005   0.0000   0.0000   0.0000  -0.5088
  -5.400  -0.1195   0.03109   0.02736  -0.1035  0.9500  0.0376  -2.4732   0.0000   0.0000   0.0000  -0.6308
  -5.200  -0.1031   0.03010   0.02634  -0.1033  0.9439  0.0398  -2.3159   0.0000   0.0000   0.0000  -0.7667
  -5.000  -0.0839   0.02836   0.02443  -0.1035  0.9380  0.0420  -2.2160   0.0000   0.0000   0.0000  -1.0027
  -4.800  -0.0598   0.02052   0.01531  -0.1029  0.9327  0.0224  -2.7658   0.0000   0.0000   0.0000  -1.4999
  -4.600  -0.0345   0.01965   0.01429  -0.1033  0.9292  0.0219  -2.6020   0.0000   0.0000   0.0000  -2.7927
  -4.200   0.0056   0.01597   0.01012  -0.1023  0.9185  0.0221  -2.5943   0.0000   0.0000   0.0000  18.7967
  -4.000   0.0251   0.01384   0.00777  -0.1017  0.9127  0.0245  -2.6403   0.0000   0.0000   0.0000   4.3562
  -3.800   0.0473   0.01321   0.00711  -0.1014  0.9079  0.0273  -2.5252   0.0000   0.0000   0.0000   2.4239
  -3.600   0.0697   0.01272   0.00655  -0.1011  0.9034  0.0304  -2.4015   0.0000   0.0000   0.0000   1.7194
  -3.400   0.0905   0.01277   0.00659  -0.1006  0.8968  0.0335  -2.2288   0.0000   0.0000   0.0000   1.3744
  -3.200   0.1100   0.01154   0.00526  -0.1000  0.8900  0.0380  -2.1592   0.0000   0.0000   0.0000   1.1680
  -3.000   0.1316   0.01108   0.00473  -0.0995  0.8842  0.0413  -2.0162   0.0000   0.0000   0.0000   1.0137
  -2.600   0.1747   0.01054   0.00409  -0.0988  0.8712  0.0499  -1.7091   0.0000   0.0000   0.0000   0.8200
  -2.400   0.1962   0.01000   0.00355  -0.0983  0.8639  0.0674  -1.5845   0.0000   0.0000   0.0000   0.7549
  -2.200   0.2176   0.00931   0.00323  -0.0982  0.8577  0.1736  -1.4433   0.0000   0.0000   0.0000   0.7044
  -2.000   0.2386   0.00891   0.00310  -0.0981  0.8500  0.2611  -1.2864   0.0000   0.0000   0.0000   0.6634
  -1.800   0.2595   0.00853   0.00298  -0.0979  0.8415  0.3519  -1.1299   0.0000   0.0000   0.0000   0.6288
  -1.600   0.2805   0.00808   0.00287  -0.0976  0.8343  0.4748  -0.9756   0.0000   0.0000   0.0000   0.5992
  -1.400   0.3009   0.00777   0.00285  -0.0972  0.8255  0.5722  -0.8336   0.0000   0.0000   0.0000   0.5737
  -1.200   0.3213   0.00755   0.00281  -0.0965  0.8162  0.6439  -0.7264   0.0000   0.0000   0.0000   0.5509
  -1.000   0.3411   0.00736   0.00277  -0.0956  0.8080  0.7167  -0.6417   0.0000   0.0000   0.0000   0.5304
  -0.800   0.3590   0.00718   0.00279  -0.0943  0.7975  0.7875  -0.6153   0.0000   0.0000   0.0000   0.5124
  -0.600   0.3764   0.00705   0.00273  -0.0926  0.7881  0.8410  -0.6327   0.0000   0.0000   0.0000   0.4957
  -0.400   0.3931   0.00695   0.00268  -0.0909  0.7776  0.8874  -0.6509   0.0000   0.0000   0.0000   0.4806
  -0.200   0.4138   0.00684   0.00256  -0.0900  0.7671  0.9406  -0.6718   0.0000   0.0000   0.0000   0.4665
   0.000   0.4484   0.00677   0.00242  -0.0924  0.7561  1.0000  -0.7008   0.0000   0.0000   0.0000   0.4549
   0.200   0.4703   0.00682   0.00236  -0.0923  0.7442  1.0000  -0.7223   0.0000   0.0000   0.0000   0.4448
   0.400   0.4921   0.00688   0.00232  -0.0921  0.7324  1.0000  -0.7449   0.0000   0.0000   0.0000   0.4356
   0.600   0.5140   0.00696   0.00229  -0.0920  0.7201  1.0000  -0.7684   0.0000   0.0000   0.0000   0.4271
   0.800   0.5359   0.00703   0.00228  -0.0918  0.7080  1.0000  -0.7937   0.0000   0.0000   0.0000   0.4194
   1.000   0.5575   0.00713   0.00226  -0.0916  0.6951  1.0000  -0.8196   0.0000   0.0000   0.0000   0.4121
   1.200   0.5793   0.00721   0.00227  -0.0914  0.6817  1.0000  -0.8466   0.0000   0.0000   0.0000   0.4055
   1.400   0.6008   0.00734   0.00227  -0.0912  0.6690  1.0000  -0.8753   0.0000   0.0000   0.0000   0.3993
   1.600   0.6225   0.00742   0.00231  -0.0911  0.6553  1.0000  -0.9042   0.0000   0.0000   0.0000   0.3935
   1.800   0.6439   0.00755   0.00234  -0.0908  0.6420  1.0000  -0.9332   0.0000   0.0000   0.0000   0.3881
   2.000   0.6652   0.00768   0.00238  -0.0906  0.6272  1.0000  -0.9624   0.0000   0.0000   0.0000   0.3831
   2.200   0.6866   0.00780   0.00245  -0.0904  0.6129  1.0000  -0.9949   0.0000   0.0000   0.0000   0.3783
   2.400   0.7076   0.00796   0.00250  -0.0901  0.5987  1.0000  -1.0273   0.0000   0.0000   0.0000   0.3738
   2.600   0.7289   0.00808   0.00257  -0.0899  0.5838  1.0000  -1.0602   0.0000   0.0000   0.0000   0.3696
   2.800   0.7500   0.00824   0.00265  -0.0896  0.5697  1.0000  -1.0931   0.0000   0.0000   0.0000   0.3656
   3.000   0.7708   0.00841   0.00273  -0.0893  0.5547  1.0000  -1.1260   0.0000   0.0000   0.0000   0.3618
   3.200   0.7920   0.00855   0.00282  -0.0891  0.5406  1.0000  -1.1594   0.0000   0.0000   0.0000   0.3583
   3.400   0.8126   0.00874   0.00293  -0.0888  0.5271  1.0000  -1.1957   0.0000   0.0000   0.0000   0.3549
   3.600   0.8336   0.00890   0.00307  -0.0886  0.5123  1.0000  -1.2335   0.0000   0.0000   0.0000   0.3516
   3.800   0.8542   0.00908   0.00319  -0.0883  0.4980  1.0000  -1.2713   0.0000   0.0000   0.0000   0.3485
   4.000   0.8745   0.00930   0.00332  -0.0879  0.4834  1.0000  -1.3089   0.0000   0.0000   0.0000   0.3455
   4.200   0.8954   0.00946   0.00346  -0.0877  0.4701  1.0000  -1.3521   0.0000   0.0000   0.0000   0.3427
   4.400   0.9156   0.00968   0.00361  -0.0874  0.4571  1.0000  -1.3955   0.0000   0.0000   0.0000   0.3399
   4.600   0.9362   0.00986   0.00376  -0.0871  0.4434  1.0000  -1.4415   0.0000   0.0000   0.0000   0.3373
   4.800   0.9564   0.01008   0.00393  -0.0867  0.4299  1.0000  -1.4927   0.0000   0.0000   0.0000   0.3348
   5.000   0.9762   0.01032   0.00414  -0.0864  0.4154  1.0000  -1.5441   0.0000   0.0000   0.0000   0.3323
   5.200   0.9966   0.01052   0.00433  -0.0861  0.4026  1.0000  -1.6055   0.0000   0.0000   0.0000   0.3300
   5.600   1.0362   0.01099   0.00472  -0.0853  0.3761  1.0000  -1.7448   0.0000   0.0000   0.0000   0.3255
   5.800   1.0554   0.01127   0.00495  -0.0848  0.3629  1.0000  -1.8185   0.0000   0.0000   0.0000   0.3233
   6.000   1.0751   0.01151   0.00516  -0.0845  0.3496  1.0000  -1.8940   0.0000   0.0000   0.0000   0.3213
   6.200   1.0944   0.01178   0.00540  -0.0840  0.3366  1.0000  -1.9697   0.0000   0.0000   0.0000   0.3192
   6.400   1.1132   0.01207   0.00564  -0.0835  0.3230  1.0000  -2.0454   0.0000   0.0000   0.0000   0.3172
   6.600   1.1326   0.01232   0.00593  -0.0831  0.3108  1.0000  -2.1314   0.0000   0.0000   0.0000   0.3153
   7.000   1.1696   0.01293   0.00647  -0.0820  0.2833  1.0000  -2.3141   0.0000   0.0000   0.0000   0.3116
   7.200   1.1875   0.01328   0.00677  -0.0814  0.2701  1.0000  -2.4134   0.0000   0.0000   0.0000   0.3097
   7.400   1.2057   0.01359   0.00706  -0.0808  0.2567  1.0000  -2.5217   0.0000   0.0000   0.0000   0.3079
   7.600   1.2236   0.01392   0.00739  -0.0802  0.2454  1.0000  -2.6305   0.0000   0.0000   0.0000   0.3062
   7.800   1.2412   0.01427   0.00772  -0.0795  0.2334  1.0000  -2.7818   0.0000   0.0000   0.0000   0.3045
   8.000   1.2587   0.01462   0.00807  -0.0789  0.2225  1.0000  -2.9843   0.0000   0.0000   0.0000   0.3028
   8.200   1.2755   0.01502   0.00843  -0.0781  0.2102  1.0000  -3.1879   0.0000   0.0000   0.0000   0.3010
   8.400   1.2925   0.01538   0.00884  -0.0774  0.1986  1.0000  -3.3894   0.0000   0.0000   0.0000   0.2994
   8.600   1.3078   0.01585   0.00926  -0.0764  0.1858  1.0000  -3.5938   0.0000   0.0000   0.0000   0.2977
   8.800   1.3245   0.01622   0.00965  -0.0756  0.1755  1.0000  -3.8108   0.0000   0.0000   0.0000   0.2961
   9.000   1.3387   0.01674   0.01012  -0.0745  0.1635  1.0000  -4.0177   0.0000   0.0000   0.0000   0.2943
   9.200   1.3546   0.01713   0.01055  -0.0736  0.1527  1.0000  -4.2387   0.0000   0.0000   0.0000   0.2927
   9.400   1.3668   0.01774   0.01109  -0.0723  0.1395  1.0000  -4.4417   0.0000   0.0000   0.0000   0.2910
   9.600   1.3816   0.01817   0.01154  -0.0712  0.1283  1.0000  -4.6640   0.0000   0.0000   0.0000   0.2893
   9.800   1.3928   0.01879   0.01212  -0.0697  0.1163  1.0000  -4.8660   0.0000   0.0000   0.0000   0.2875
  10.000   1.4029   0.01938   0.01268  -0.0679  0.1048  1.0000  -5.0649   0.0000   0.0000   0.0000   0.2856
  10.200   1.4113   0.02004   0.01332  -0.0659  0.0942  1.0000  -5.2541   0.0000   0.0000   0.0000   0.2836
  10.400   1.4182   0.02079   0.01402  -0.0638  0.0843  1.0000  -5.4357   0.0000   0.0000   0.0000   0.2816
  10.600   1.4250   0.02155   0.01484  -0.0617  0.0762  1.0000  -5.6208   0.0000   0.0000   0.0000   0.2796
  10.800   1.4328   0.02228   0.01559  -0.0599  0.0697  1.0000  -5.8123   0.0000   0.0000   0.0000   0.2777
  11.000   1.4354   0.02335   0.01661  -0.0575  0.0624  1.0000  -5.9659   0.0000   0.0000   0.0000   0.2757
  11.200   1.4435   0.02409   0.01743  -0.0558  0.0582  1.0000  -6.1616   0.0000   0.0000   0.0000   0.2740
  11.400   1.4526   0.02479   0.01817  -0.0544  0.0537  1.0000  -6.3720   0.0000   0.0000   0.0000   0.2724
  11.600   1.4574   0.02579   0.01915  -0.0526  0.0488  1.0000  -6.5505   0.0000   0.0000   0.0000   0.2708
  11.800   1.4555   0.02728   0.02068  -0.0502  0.0438  1.0000  -6.6690   0.0000   0.0000   0.0000   0.2688
  12.000   1.4664   0.02792   0.02140  -0.0492  0.0418  1.0000  -6.8982   0.0000   0.0000   0.0000   0.2676
  12.200   1.4743   0.02879   0.02236  -0.0480  0.0394  1.0000  -7.1030   0.0000   0.0000   0.0000   0.2662
  12.400   1.4797   0.02988   0.02350  -0.0467  0.0368  1.0000  -7.2879   0.0000   0.0000   0.0000   0.2648
  12.600   1.4824   0.03121   0.02486  -0.0453  0.0342  1.0000  -7.4511   0.0000   0.0000   0.0000   0.2634
  12.800   1.4805   0.03299   0.02668  -0.0437  0.0313  1.0000  -7.5692   0.0000   0.0000   0.0000   0.2620
  13.000   1.4765   0.03503   0.02882  -0.0421  0.0291  1.0000  -7.6640   0.0000   0.0000   0.0000   0.2607
  13.200   1.4861   0.03593   0.02982  -0.0415  0.0278  1.0000  -7.8853   0.0000   0.0000   0.0000   0.2597
  13.400   1.4922   0.03719   0.03116  -0.0408  0.0256  1.0000  -8.0728   0.0000   0.0000   0.0000   0.2588
  13.600   1.4945   0.03885   0.03286  -0.0401  0.0230  1.0000  -8.2254   0.0000   0.0000   0.0000   0.2579
  13.800   1.4887   0.04141   0.03545  -0.0394  0.0202  1.0000  -8.2951   0.0000   0.0000   0.0000   0.2571
  14.000   1.4836   0.04404   0.03818  -0.0389  0.0179  1.0000  -8.3479   0.0000   0.0000   0.0000   0.2564
  14.200   1.4838   0.04619   0.04044  -0.0386  0.0150  1.0000  -8.4526   0.0000   0.0000   0.0000   0.2558
  14.400   1.4740   0.04963   0.04391  -0.0387  0.0130  1.0000  -8.4911   0.0000   0.0000   0.0000   0.2556
  14.600   1.4540   0.05460   0.04902  -0.0392  0.0117  1.0000  -8.3971   0.0000   0.0000   0.0000   0.2559
  14.800   1.4482   0.05796   0.05250  -0.0398  0.0110  1.0000  -8.4633   0.0000   0.0000   0.0000   0.2560
  15.000   1.4427   0.06141   0.05608  -0.0406  0.0104  1.0000  -8.5339   0.0000   0.0000   0.0000   0.2562


