xflr5 v6.61

 Calculated polar for: SD7032-099-88

 1 1 Reynolds number fixed          Mach number fixed         

 xtrf =   1.000 (top)        1.000 (bottom)
 Mach =   0.000     Re =     0.450 e 6     Ncrit =   9.000

  alpha     CL        CD       CDp       Cm    Top Xtr Bot Xtr   Cpmin    Chinge    XCp    
 ------- -------- --------- --------- -------- ------- ------- -------- --------- ---------
  -9.800  -0.3210   0.10257   0.10015  -0.0380  1.0000  0.0140  -2.0957   0.0000   0.0000   0.0000   0.1220
  -9.600  -0.3218   0.09971   0.09732  -0.0382  1.0000  0.0143  -2.1233   0.0000   0.0000   0.0000   0.1217
  -9.400  -0.3204   0.09755   0.09518  -0.0381  1.0000  0.0144  -2.1007   0.0000   0.0000   0.0000   0.1219
  -9.200  -0.3199   0.09552   0.09318  -0.0378  1.0000  0.0146  -2.0826   0.0000   0.0000   0.0000   0.1228
  -9.000  -0.3206   0.09365   0.09134  -0.0373  1.0000  0.0148  -2.0688   0.0000   0.0000   0.0000   0.1251
  -8.800  -0.3234   0.09196   0.08969  -0.0363  1.0000  0.0149  -2.0623   0.0000   0.0000   0.0000   0.1294
  -8.600  -0.3288   0.09048   0.08824  -0.0348  1.0000  0.0151  -2.0649   0.0000   0.0000   0.0000   0.1362
  -8.400  -0.3366   0.08917   0.08697  -0.0329  1.0000  0.0152  -2.0762   0.0000   0.0000   0.0000   0.1447
  -8.200  -0.3459   0.08794   0.08579  -0.0309  1.0000  0.0153  -2.0937   0.0000   0.0000   0.0000   0.1538
  -8.000  -0.3332   0.08466   0.08251  -0.0347  0.9981  0.0156  -2.0739   0.0000   0.0000   0.0000   0.1389
  -7.800  -0.3200   0.08118   0.07903  -0.0391  0.9953  0.0161  -2.0685   0.0000   0.0000   0.0000   0.1208
  -7.600  -0.3062   0.07748   0.07534  -0.0441  0.9920  0.0166  -2.0783   0.0000   0.0000   0.0000   0.0987
  -7.400  -0.2949   0.07377   0.07163  -0.0491  0.9877  0.0171  -2.1070   0.0000   0.0000   0.0000   0.0763
  -7.200  -0.2839   0.06971   0.06758  -0.0549  0.9815  0.0177  -2.1546   0.0000   0.0000   0.0000   0.0494
  -7.000  -0.2638   0.06406   0.06192  -0.0649  0.9770  0.0186  -2.2388   0.0000   0.0000   0.0000  -0.0037
  -6.800  -0.2357   0.05663   0.05442  -0.0788  0.9737  0.0202  -2.4090   0.0000   0.0000   0.0000  -0.0926
  -6.200  -0.1707   0.04149   0.03866  -0.0974  0.9588  0.0217  -2.7762   0.0000   0.0000   0.0000  -0.3316
  -6.000  -0.1514   0.03758   0.03449  -0.1006  0.9543  0.0217  -2.8140   0.0000   0.0000   0.0000  -0.4268
  -5.800  -0.1442   0.02932   0.02569  -0.1040  0.9481  0.0226  -3.1060   0.0000   0.0000   0.0000  -0.4849
  -5.600  -0.1289   0.02778   0.02396  -0.1033  0.9414  0.0224  -3.0274   0.0000   0.0000   0.0000  -0.5659
  -5.000  -0.0749   0.02003   0.01544  -0.1031  0.9260  0.0197  -2.8966   0.0000   0.0000   0.0000  -1.1499
  -4.800  -0.0579   0.01753   0.01256  -0.1023  0.9198  0.0185  -2.8935   0.0000   0.0000   0.0000  -1.5451
  -4.600  -0.0384   0.01574   0.01049  -0.1016  0.9140  0.0180  -2.8286   0.0000   0.0000   0.0000  -2.4399
  -4.400  -0.0179   0.01442   0.00896  -0.1010  0.9088  0.0182  -2.7796   0.0000   0.0000   0.0000  -5.4836
  -4.200   0.0031   0.01343   0.00781  -0.1004  0.9041  0.0189  -2.7286   0.0000   0.0000   0.0000  33.4830
  -4.000   0.0238   0.01277   0.00705  -0.0998  0.8985  0.0204  -2.6586   0.0000   0.0000   0.0000   4.4938
  -3.800   0.0453   0.01265   0.00687  -0.0993  0.8920  0.0217  -2.5244   0.0000   0.0000   0.0000   2.4737
  -3.600   0.0645   0.01102   0.00510  -0.0987  0.8860  0.0259  -2.5143   0.0000   0.0000   0.0000   1.7999
  -3.400   0.0860   0.01075   0.00479  -0.0984  0.8806  0.0294  -2.3495   0.0000   0.0000   0.0000   1.4068
  -3.200   0.1075   0.01061   0.00464  -0.0981  0.8742  0.0326  -2.1762   0.0000   0.0000   0.0000   1.1717
  -3.000   0.1289   0.01027   0.00423  -0.0977  0.8671  0.0341  -2.0271   0.0000   0.0000   0.0000   1.0155
  -2.800   0.1503   0.00966   0.00349  -0.0973  0.8605  0.0380  -1.9008   0.0000   0.0000   0.0000   0.9034
  -2.600   0.1723   0.00937   0.00317  -0.0971  0.8541  0.0439  -1.7433   0.0000   0.0000   0.0000   0.8181
  -2.400   0.1941   0.00915   0.00291  -0.0968  0.8461  0.0499  -1.5902   0.0000   0.0000   0.0000   0.7523
  -2.200   0.2158   0.00860   0.00258  -0.0967  0.8383  0.1167  -1.4530   0.0000   0.0000   0.0000   0.7008
  -2.000   0.2374   0.00820   0.00242  -0.0966  0.8311  0.2001  -1.2941   0.0000   0.0000   0.0000   0.6592
  -1.800   0.2589   0.00789   0.00233  -0.0966  0.8221  0.2748  -1.1352   0.0000   0.0000   0.0000   0.6246
  -1.600   0.2804   0.00757   0.00221  -0.0965  0.8134  0.3597  -0.9791   0.0000   0.0000   0.0000   0.5951
  -1.400   0.3018   0.00724   0.00217  -0.0963  0.8047  0.4631  -0.8317   0.0000   0.0000   0.0000   0.5700
  -1.200   0.3228   0.00695   0.00215  -0.0961  0.7947  0.5588  -0.7253   0.0000   0.0000   0.0000   0.5480
  -1.000   0.3438   0.00678   0.00211  -0.0956  0.7854  0.6307  -0.6385   0.0000   0.0000   0.0000   0.5282
  -0.800   0.3643   0.00661   0.00213  -0.0951  0.7747  0.6985  -0.6190   0.0000   0.0000   0.0000   0.5107
  -0.600   0.3835   0.00647   0.00213  -0.0941  0.7643  0.7695  -0.6375   0.0000   0.0000   0.0000   0.4948
  -0.400   0.4023   0.00637   0.00214  -0.0930  0.7534  0.8227  -0.6570   0.0000   0.0000   0.0000   0.4804
  -0.200   0.4200   0.00630   0.00211  -0.0916  0.7423  0.8682  -0.6761   0.0000   0.0000   0.0000   0.4670
   0.000   0.4373   0.00622   0.00207  -0.0900  0.7309  0.9130  -0.6949   0.0000   0.0000   0.0000   0.4547
   0.200   0.4625   0.00618   0.00198  -0.0903  0.7187  0.9609  -0.7185   0.0000   0.0000   0.0000   0.4439
   0.400   0.4918   0.00619   0.00193  -0.0918  0.7067  1.0000  -0.7455   0.0000   0.0000   0.0000   0.4350
   0.600   0.5136   0.00629   0.00190  -0.0916  0.6941  1.0000  -0.7690   0.0000   0.0000   0.0000   0.4266
   0.800   0.5357   0.00637   0.00191  -0.0916  0.6810  1.0000  -0.7944   0.0000   0.0000   0.0000   0.4189
   1.000   0.5574   0.00648   0.00190  -0.0914  0.6681  1.0000  -0.8204   0.0000   0.0000   0.0000   0.4118
   1.200   0.5793   0.00656   0.00192  -0.0913  0.6550  1.0000  -0.8476   0.0000   0.0000   0.0000   0.4052
   1.400   0.6010   0.00668   0.00194  -0.0911  0.6420  1.0000  -0.8764   0.0000   0.0000   0.0000   0.3991
   1.600   0.6226   0.00680   0.00197  -0.0910  0.6277  1.0000  -0.9054   0.0000   0.0000   0.0000   0.3934
   1.800   0.6443   0.00691   0.00201  -0.0908  0.6135  1.0000  -0.9345   0.0000   0.0000   0.0000   0.3880
   2.000   0.6655   0.00706   0.00205  -0.0906  0.5991  1.0000  -0.9639   0.0000   0.0000   0.0000   0.3830
   2.200   0.6872   0.00717   0.00212  -0.0905  0.5846  1.0000  -0.9967   0.0000   0.0000   0.0000   0.3783
   2.400   0.7085   0.00732   0.00218  -0.0903  0.5707  1.0000  -1.0294   0.0000   0.0000   0.0000   0.3739
   2.600   0.7297   0.00747   0.00225  -0.0900  0.5557  1.0000  -1.0622   0.0000   0.0000   0.0000   0.3697
   2.800   0.7511   0.00760   0.00233  -0.0899  0.5416  1.0000  -1.0955   0.0000   0.0000   0.0000   0.3658
   3.000   0.7721   0.00778   0.00241  -0.0896  0.5281  1.0000  -1.1285   0.0000   0.0000   0.0000   0.3620
   3.200   0.7935   0.00791   0.00250  -0.0895  0.5142  1.0000  -1.1621   0.0000   0.0000   0.0000   0.3585
   3.400   0.8144   0.00808   0.00260  -0.0892  0.5001  1.0000  -1.1989   0.0000   0.0000   0.0000   0.3551
   3.600   0.8352   0.00826   0.00273  -0.0890  0.4852  1.0000  -1.2366   0.0000   0.0000   0.0000   0.3519
   3.800   0.8564   0.00841   0.00285  -0.0888  0.4720  1.0000  -1.2749   0.0000   0.0000   0.0000   0.3488
   4.000   0.8768   0.00863   0.00297  -0.0885  0.4587  1.0000  -1.3128   0.0000   0.0000   0.0000   0.3459
   4.200   0.8981   0.00877   0.00310  -0.0883  0.4461  1.0000  -1.3566   0.0000   0.0000   0.0000   0.3431
   4.400   0.9185   0.00898   0.00324  -0.0880  0.4329  1.0000  -1.4004   0.0000   0.0000   0.0000   0.3404
   4.600   0.9392   0.00917   0.00339  -0.0878  0.4187  1.0000  -1.4471   0.0000   0.0000   0.0000   0.3378
   4.800   0.9597   0.00937   0.00354  -0.0875  0.4055  1.0000  -1.4989   0.0000   0.0000   0.0000   0.3353
   5.000   0.9798   0.00959   0.00374  -0.0872  0.3924  1.0000  -1.5509   0.0000   0.0000   0.0000   0.3328
   5.200   1.0004   0.00978   0.00391  -0.0869  0.3802  1.0000  -1.6133   0.0000   0.0000   0.0000   0.3305
   5.600   1.0406   0.01023   0.00428  -0.0863  0.3536  1.0000  -1.7560   0.0000   0.0000   0.0000   0.3261
   5.800   1.0601   0.01050   0.00448  -0.0859  0.3407  1.0000  -1.8304   0.0000   0.0000   0.0000   0.3239
   6.000   1.0801   0.01072   0.00468  -0.0856  0.3274  1.0000  -1.9069   0.0000   0.0000   0.0000   0.3219
   6.200   1.0996   0.01097   0.00490  -0.0852  0.3152  1.0000  -1.9832   0.0000   0.0000   0.0000   0.3199
   6.400   1.1190   0.01123   0.00512  -0.0848  0.3023  1.0000  -2.0605   0.0000   0.0000   0.0000   0.3179
   6.600   1.1384   0.01149   0.00539  -0.0843  0.2890  1.0000  -2.1489   0.0000   0.0000   0.0000   0.3160
   7.000   1.1762   0.01207   0.00589  -0.0834  0.2616  1.0000  -2.3340   0.0000   0.0000   0.0000   0.3123
   7.200   1.1944   0.01241   0.00617  -0.0828  0.2492  1.0000  -2.4375   0.0000   0.0000   0.0000   0.3105
   7.400   1.2135   0.01267   0.00644  -0.0824  0.2382  1.0000  -2.5488   0.0000   0.0000   0.0000   0.3088
   7.600   1.2313   0.01303   0.00675  -0.0818  0.2266  1.0000  -2.6577   0.0000   0.0000   0.0000   0.3070
   7.800   1.2500   0.01331   0.00704  -0.0813  0.2157  1.0000  -2.8384   0.0000   0.0000   0.0000   0.3054
   8.000   1.2672   0.01370   0.00738  -0.0806  0.2034  1.0000  -3.0413   0.0000   0.0000   0.0000   0.3037
   8.200   1.2849   0.01404   0.00774  -0.0799  0.1913  1.0000  -3.2463   0.0000   0.0000   0.0000   0.3020
   8.400   1.3018   0.01443   0.00810  -0.0792  0.1801  1.0000  -3.4551   0.0000   0.0000   0.0000   0.3004
   8.600   1.3188   0.01480   0.00846  -0.0785  0.1695  1.0000  -3.6712   0.0000   0.0000   0.0000   0.2987
   8.800   1.3349   0.01522   0.00886  -0.0776  0.1584  1.0000  -3.8868   0.0000   0.0000   0.0000   0.2971
   9.000   1.3508   0.01565   0.00926  -0.0768  0.1466  1.0000  -4.1063   0.0000   0.0000   0.0000   0.2955
   9.200   1.3662   0.01609   0.00969  -0.0758  0.1354  1.0000  -4.3269   0.0000   0.0000   0.0000   0.2938
   9.400   1.3804   0.01661   0.01015  -0.0747  0.1233  1.0000  -4.5445   0.0000   0.0000   0.0000   0.2922
   9.600   1.3948   0.01708   0.01062  -0.0736  0.1120  1.0000  -4.7667   0.0000   0.0000   0.0000   0.2905
   9.800   1.4060   0.01775   0.01120  -0.0721  0.0981  1.0000  -4.9721   0.0000   0.0000   0.0000   0.2887
  10.000   1.4184   0.01827   0.01171  -0.0707  0.0879  1.0000  -5.1889   0.0000   0.0000   0.0000   0.2870
  10.200   1.4267   0.01894   0.01234  -0.0687  0.0772  1.0000  -5.3805   0.0000   0.0000   0.0000   0.2850
  10.400   1.4359   0.01953   0.01294  -0.0668  0.0697  1.0000  -5.5862   0.0000   0.0000   0.0000   0.2831
  10.600   1.4406   0.02038   0.01375  -0.0643  0.0604  1.0000  -5.7561   0.0000   0.0000   0.0000   0.2809
  10.800   1.4521   0.02085   0.01427  -0.0629  0.0565  1.0000  -5.9805   0.0000   0.0000   0.0000   0.2792
  11.000   1.4598   0.02155   0.01496  -0.0610  0.0513  1.0000  -6.1796   0.0000   0.0000   0.0000   0.2774
  11.200   1.4645   0.02247   0.01586  -0.0588  0.0455  1.0000  -6.3544   0.0000   0.0000   0.0000   0.2755
  11.400   1.4722   0.02320   0.01666  -0.0571  0.0426  1.0000  -6.5522   0.0000   0.0000   0.0000   0.2737
  11.600   1.4823   0.02380   0.01734  -0.0557  0.0405  1.0000  -6.7745   0.0000   0.0000   0.0000   0.2722
  11.800   1.4899   0.02458   0.01815  -0.0541  0.0377  1.0000  -6.9794   0.0000   0.0000   0.0000   0.2706
  12.000   1.4955   0.02552   0.01910  -0.0524  0.0348  1.0000  -7.1684   0.0000   0.0000   0.0000   0.2690
  12.200   1.4979   0.02671   0.02033  -0.0505  0.0314  1.0000  -7.3283   0.0000   0.0000   0.0000   0.2673
  12.400   1.5001   0.02796   0.02165  -0.0487  0.0291  1.0000  -7.4839   0.0000   0.0000   0.0000   0.2657
  12.600   1.5102   0.02866   0.02244  -0.0477  0.0279  1.0000  -7.7134   0.0000   0.0000   0.0000   0.2645
  12.800   1.5177   0.02958   0.02343  -0.0466  0.0259  1.0000  -7.9199   0.0000   0.0000   0.0000   0.2632
  13.000   1.5224   0.03076   0.02462  -0.0453  0.0235  1.0000  -8.1022   0.0000   0.0000   0.0000   0.2619


