xflr5 v6.61

 Calculated polar for: SD7032-099-88

 1 1 Reynolds number fixed          Mach number fixed         

 xtrf =   1.000 (top)        1.000 (bottom)
 Mach =   0.000     Re =     0.300 e 6     Ncrit =   9.000

  alpha     CL        CD       CDp       Cm    Top Xtr Bot Xtr   Cpmin    Chinge    XCp    
 ------- -------- --------- --------- -------- ------- ------- -------- --------- ---------
 -10.000  -0.3130   0.11059   0.10760  -0.0373  1.0000  0.0215  -1.7579   0.0000   0.0000   0.0000   0.1210
  -9.800  -0.3109   0.10814   0.10517  -0.0380  1.0000  0.0216  -1.7864   0.0000   0.0000   0.0000   0.1183
  -9.600  -0.3093   0.10569   0.10275  -0.0385  1.0000  0.0216  -1.8165   0.0000   0.0000   0.0000   0.1161
  -9.400  -0.3083   0.10327   0.10036  -0.0390  1.0000  0.0216  -1.8482   0.0000   0.0000   0.0000   0.1145
  -9.200  -0.3081   0.10090   0.09802  -0.0392  1.0000  0.0217  -1.8816   0.0000   0.0000   0.0000   0.1138
  -9.000  -0.3091   0.09862   0.09578  -0.0392  1.0000  0.0217  -1.9166   0.0000   0.0000   0.0000   0.1144
  -8.800  -0.3116   0.09649   0.09369  -0.0389  1.0000  0.0217  -1.9530   0.0000   0.0000   0.0000   0.1167
  -8.600  -0.3162   0.09455   0.09180  -0.0381  1.0000  0.0217  -1.9905   0.0000   0.0000   0.0000   0.1213
  -8.400  -0.3228   0.09282   0.09012  -0.0369  1.0000  0.0217  -2.0287   0.0000   0.0000   0.0000   0.1281
  -8.200  -0.3409   0.08923   0.08660  -0.0355  1.0000  0.0221  -2.1813   0.0000   0.0000   0.0000   0.1388
  -8.000  -0.3557   0.08700   0.08444  -0.0335  1.0000  0.0223  -2.2558   0.0000   0.0000   0.0000   0.1491
  -7.800  -0.3695   0.08549   0.08297  -0.0314  1.0000  0.0225  -2.3017   0.0000   0.0000   0.0000   0.1589
  -7.600  -0.3715   0.08265   0.08017  -0.0325  0.9984  0.0229  -2.3261   0.0000   0.0000   0.0000   0.1565
  -7.400  -0.3580   0.07966   0.07717  -0.0356  0.9951  0.0235  -2.2562   0.0000   0.0000   0.0000   0.1445
  -7.200  -0.3422   0.07654   0.07406  -0.0399  0.9915  0.0242  -2.1998   0.0000   0.0000   0.0000   0.1274
  -7.000  -0.3267   0.07304   0.07056  -0.0449  0.9869  0.0250  -2.1702   0.0000   0.0000   0.0000   0.1066
  -6.800  -0.3093   0.06893   0.06643  -0.0515  0.9814  0.0260  -2.1693   0.0000   0.0000   0.0000   0.0775
  -6.600  -0.2877   0.06388   0.06135  -0.0605  0.9767  0.0274  -2.2041   0.0000   0.0000   0.0000   0.0335
  -6.400  -0.2607   0.05772   0.05510  -0.0714  0.9732  0.0294  -2.2884   0.0000   0.0000   0.0000  -0.0306
  -6.200  -0.2240   0.05335   0.05045  -0.0809  0.9690  0.0333  -2.4041   0.0000   0.0000   0.0000  -0.1187
  -5.600  -0.1745   0.03873   0.03539  -0.0937  0.9544  0.0385  -2.4164   0.0000   0.0000   0.0000  -0.2962
  -5.400  -0.1454   0.03699   0.03355  -0.0968  0.9526  0.0431  -2.2473   0.0000   0.0000   0.0000  -0.4267
  -5.200  -0.1067   0.03781   0.03402  -0.0990  0.9508  0.0501  -2.0993   0.0000   0.0000   0.0000  -0.6912
  -5.000  -0.0837   0.03591   0.03185  -0.1003  0.9462  0.0504  -2.0326   0.0000   0.0000   0.0000  -0.9660
  -4.800  -0.0766   0.02434   0.01952  -0.1011  0.9379  0.0300  -2.5055   0.0000   0.0000   0.0000  -1.0906
  -4.600  -0.0525   0.01938   0.01376  -0.1015  0.9338  0.0246  -2.6979   0.0000   0.0000   0.0000  -1.7146
  -4.400  -0.0254   0.01751   0.01158  -0.1021  0.9307  0.0243  -2.6734   0.0000   0.0000   0.0000  -3.8268
  -4.200   0.0016   0.01621   0.01012  -0.1029  0.9277  0.0254  -2.6136   0.0000   0.0000   0.0000  66.0185
  -4.000   0.0233   0.01540   0.00922  -0.1025  0.9226  0.0275  -2.5411   0.0000   0.0000   0.0000   4.7190
  -3.800   0.0432   0.01470   0.00844  -0.1018  0.9158  0.0300  -2.4657   0.0000   0.0000   0.0000   2.6367
  -3.600   0.0668   0.01433   0.00799  -0.1017  0.9106  0.0330  -2.3358   0.0000   0.0000   0.0000   1.7903
  -3.400   0.0894   0.01302   0.00660  -0.1016  0.9062  0.0386  -2.2533   0.0000   0.0000   0.0000   1.3995
  -3.200   0.1123   0.01249   0.00601  -0.1014  0.9016  0.0421  -2.1202   0.0000   0.0000   0.0000   1.1627
  -3.000   0.1317   0.01211   0.00558  -0.1007  0.8939  0.0454  -1.9874   0.0000   0.0000   0.0000   1.0220
  -2.800   0.1536   0.01182   0.00525  -0.1003  0.8874  0.0496  -1.8313   0.0000   0.0000   0.0000   0.9087
  -2.600   0.1760   0.01116   0.00450  -0.0999  0.8820  0.0575  -1.7093   0.0000   0.0000   0.0000   0.8225
  -2.400   0.1975   0.01064   0.00406  -0.0996  0.8757  0.0860  -1.5815   0.0000   0.0000   0.0000   0.7577
  -2.200   0.2175   0.00993   0.00381  -0.0993  0.8675  0.2087  -1.4414   0.0000   0.0000   0.0000   0.7096
  -2.000   0.2389   0.00946   0.00362  -0.0991  0.8608  0.3048  -1.2832   0.0000   0.0000   0.0000   0.6674
  -1.800   0.2601   0.00898   0.00350  -0.0989  0.8545  0.4231  -1.1257   0.0000   0.0000   0.0000   0.6322
  -1.600   0.2793   0.00857   0.00347  -0.0983  0.8453  0.5434  -0.9776   0.0000   0.0000   0.0000   0.6032
  -1.400   0.2995   0.00828   0.00339  -0.0976  0.8375  0.6244  -0.8368   0.0000   0.0000   0.0000   0.5766
  -1.200   0.3194   0.00806   0.00334  -0.0966  0.8299  0.6959  -0.7288   0.0000   0.0000   0.0000   0.5530
  -1.000   0.3367   0.00785   0.00334  -0.0951  0.8199  0.7720  -0.6491   0.0000   0.0000   0.0000   0.5326
  -0.800   0.3538   0.00768   0.00326  -0.0933  0.8116  0.8332  -0.6119   0.0000   0.0000   0.0000   0.5136
  -0.600   0.3699   0.00756   0.00321  -0.0914  0.8018  0.8812  -0.6284   0.0000   0.0000   0.0000   0.4967
  -0.400   0.3903   0.00741   0.00305  -0.0903  0.7919  0.9357  -0.6488   0.0000   0.0000   0.0000   0.4806
  -0.200   0.4272   0.00729   0.00285  -0.0930  0.7825  1.0000  -0.6791   0.0000   0.0000   0.0000   0.4669
   0.000   0.4488   0.00732   0.00278  -0.0929  0.7707  1.0000  -0.7002   0.0000   0.0000   0.0000   0.4558
   0.200   0.4707   0.00736   0.00269  -0.0927  0.7604  1.0000  -0.7218   0.0000   0.0000   0.0000   0.4455
   0.400   0.4924   0.00740   0.00265  -0.0925  0.7478  1.0000  -0.7443   0.0000   0.0000   0.0000   0.4363
   0.600   0.5142   0.00747   0.00260  -0.0923  0.7365  1.0000  -0.7679   0.0000   0.0000   0.0000   0.4277
   0.800   0.5359   0.00753   0.00258  -0.0921  0.7236  1.0000  -0.7931   0.0000   0.0000   0.0000   0.4198
   1.000   0.5577   0.00762   0.00256  -0.0919  0.7119  1.0000  -0.8190   0.0000   0.0000   0.0000   0.4126
   1.200   0.5792   0.00770   0.00255  -0.0916  0.6984  1.0000  -0.8458   0.0000   0.0000   0.0000   0.4059
   1.400   0.6008   0.00779   0.00256  -0.0914  0.6853  1.0000  -0.8745   0.0000   0.0000   0.0000   0.3996
   1.600   0.6223   0.00791   0.00257  -0.0912  0.6721  1.0000  -0.9033   0.0000   0.0000   0.0000   0.3938
   1.800   0.6438   0.00801   0.00261  -0.0910  0.6585  1.0000  -0.9323   0.0000   0.0000   0.0000   0.3884
   2.000   0.6650   0.00815   0.00263  -0.0907  0.6451  1.0000  -0.9614   0.0000   0.0000   0.0000   0.3832
   2.200   0.6863   0.00826   0.00270  -0.0904  0.6300  1.0000  -0.9936   0.0000   0.0000   0.0000   0.3785
   2.400   0.7074   0.00840   0.00276  -0.0901  0.6159  1.0000  -1.0262   0.0000   0.0000   0.0000   0.3740
   2.600   0.7284   0.00856   0.00281  -0.0898  0.6012  1.0000  -1.0588   0.0000   0.0000   0.0000   0.3697
   2.800   0.7495   0.00869   0.00289  -0.0896  0.5865  1.0000  -1.0917   0.0000   0.0000   0.0000   0.3657
   3.000   0.7703   0.00887   0.00298  -0.0893  0.5722  1.0000  -1.1245   0.0000   0.0000   0.0000   0.3618
   3.200   0.7911   0.00903   0.00307  -0.0890  0.5570  1.0000  -1.1576   0.0000   0.0000   0.0000   0.3582
   3.400   0.8120   0.00919   0.00318  -0.0887  0.5429  1.0000  -1.1940   0.0000   0.0000   0.0000   0.3548
   3.600   0.8324   0.00940   0.00332  -0.0883  0.5291  1.0000  -1.2312   0.0000   0.0000   0.0000   0.3515
   3.800   0.8533   0.00955   0.00345  -0.0881  0.5143  1.0000  -1.2691   0.0000   0.0000   0.0000   0.3484
   4.000   0.8737   0.00975   0.00358  -0.0877  0.4999  1.0000  -1.3069   0.0000   0.0000   0.0000   0.3454
   4.200   0.8939   0.00997   0.00372  -0.0874  0.4852  1.0000  -1.3491   0.0000   0.0000   0.0000   0.3425
   4.400   0.9145   0.01015   0.00388  -0.0871  0.4718  1.0000  -1.3929   0.0000   0.0000   0.0000   0.3398
   4.600   0.9343   0.01040   0.00404  -0.0867  0.4586  1.0000  -1.4377   0.0000   0.0000   0.0000   0.3371
   4.800   0.9548   0.01058   0.00422  -0.0864  0.4447  1.0000  -1.4892   0.0000   0.0000   0.0000   0.3346
   5.000   0.9746   0.01082   0.00444  -0.0860  0.4310  1.0000  -1.5404   0.0000   0.0000   0.0000   0.3321
   5.200   0.9943   0.01106   0.00463  -0.0856  0.4166  1.0000  -1.6006   0.0000   0.0000   0.0000   0.3297
   5.400   1.0143   0.01129   0.00484  -0.0852  0.4038  1.0000  -1.6647   0.0000   0.0000   0.0000   0.3274
   5.600   1.0334   0.01158   0.00505  -0.0847  0.3903  1.0000  -1.7372   0.0000   0.0000   0.0000   0.3252
   5.800   1.0533   0.01179   0.00527  -0.0843  0.3768  1.0000  -1.8120   0.0000   0.0000   0.0000   0.3230
   6.000   1.0721   0.01210   0.00552  -0.0838  0.3635  1.0000  -1.8858   0.0000   0.0000   0.0000   0.3209
   6.200   1.0915   0.01234   0.00575  -0.0834  0.3500  1.0000  -1.9616   0.0000   0.0000   0.0000   0.3189
   6.400   1.1103   0.01263   0.00602  -0.0829  0.3370  1.0000  -2.0371   0.0000   0.0000   0.0000   0.3168
   6.600   1.1288   0.01294   0.00632  -0.0823  0.3234  1.0000  -2.1198   0.0000   0.0000   0.0000   0.3149
   6.800   1.1477   0.01322   0.00660  -0.0818  0.3107  1.0000  -2.2110   0.0000   0.0000   0.0000   0.3130
   7.200   1.1839   0.01386   0.00719  -0.0806  0.2832  1.0000  -2.3996   0.0000   0.0000   0.0000   0.3093
   7.400   1.2012   0.01423   0.00752  -0.0799  0.2701  1.0000  -2.5050   0.0000   0.0000   0.0000   0.3074
   7.600   1.2189   0.01456   0.00784  -0.0792  0.2567  1.0000  -2.6130   0.0000   0.0000   0.0000   0.3057
   7.800   1.2363   0.01492   0.00820  -0.0785  0.2452  1.0000  -2.7482   0.0000   0.0000   0.0000   0.3039
   8.000   1.2533   0.01530   0.00856  -0.0778  0.2333  1.0000  -2.9468   0.0000   0.0000   0.0000   0.3022
   8.200   1.2702   0.01568   0.00895  -0.0770  0.2223  1.0000  -3.1497   0.0000   0.0000   0.0000   0.3005
   8.400   1.2862   0.01610   0.00938  -0.0762  0.2100  1.0000  -3.3448   0.0000   0.0000   0.0000   0.2988
   8.600   1.3025   0.01649   0.00979  -0.0753  0.1983  1.0000  -3.5528   0.0000   0.0000   0.0000   0.2971
   8.800   1.3169   0.01700   0.01024  -0.0742  0.1855  1.0000  -3.7552   0.0000   0.0000   0.0000   0.2954
   9.000   1.3329   0.01739   0.01068  -0.0734  0.1748  1.0000  -3.9710   0.0000   0.0000   0.0000   0.2937
   9.200   1.3456   0.01797   0.01120  -0.0721  0.1627  1.0000  -4.1717   0.0000   0.0000   0.0000   0.2919
   9.400   1.3608   0.01839   0.01166  -0.0711  0.1515  1.0000  -4.3907   0.0000   0.0000   0.0000   0.2903
   9.600   1.3718   0.01904   0.01225  -0.0695  0.1387  1.0000  -4.5875   0.0000   0.0000   0.0000   0.2885
   9.800   1.3841   0.01953   0.01276  -0.0681  0.1268  1.0000  -4.7965   0.0000   0.0000   0.0000   0.2867
  10.000   1.3927   0.02019   0.01339  -0.0662  0.1154  1.0000  -4.9828   0.0000   0.0000   0.0000   0.2847
  10.200   1.4008   0.02087   0.01404  -0.0642  0.1041  1.0000  -5.1687   0.0000   0.0000   0.0000   0.2827
  10.400   1.4080   0.02162   0.01479  -0.0621  0.0942  1.0000  -5.3485   0.0000   0.0000   0.0000   0.2807
  10.600   1.4142   0.02245   0.01563  -0.0601  0.0850  1.0000  -5.5284   0.0000   0.0000   0.0000   0.2788
  10.800   1.4182   0.02343   0.01661  -0.0578  0.0772  1.0000  -5.6875   0.0000   0.0000   0.0000   0.2767
  11.000   1.4266   0.02417   0.01742  -0.0561  0.0715  1.0000  -5.8814   0.0000   0.0000   0.0000   0.2750
  11.200   1.4304   0.02523   0.01846  -0.0541  0.0659  1.0000  -6.0430   0.0000   0.0000   0.0000   0.2731
  11.400   1.4279   0.02675   0.01999  -0.0514  0.0601  1.0000  -6.1513   0.0000   0.0000   0.0000   0.2710
  11.600   1.4396   0.02732   0.02068  -0.0504  0.0570  1.0000  -6.3773   0.0000   0.0000   0.0000   0.2697
  11.800   1.4474   0.02818   0.02159  -0.0491  0.0526  1.0000  -6.5786   0.0000   0.0000   0.0000   0.2683
  12.000   1.4502   0.02943   0.02282  -0.0475  0.0482  1.0000  -6.7412   0.0000   0.0000   0.0000   0.2668
  12.200   1.4449   0.03137   0.02481  -0.0453  0.0438  1.0000  -6.8282   0.0000   0.0000   0.0000   0.2650
  12.400   1.4561   0.03205   0.02558  -0.0446  0.0415  1.0000  -7.0621   0.0000   0.0000   0.0000   0.2639
  12.600   1.4632   0.03309   0.02672  -0.0437  0.0390  1.0000  -7.2596   0.0000   0.0000   0.0000   0.2628
  12.800   1.4672   0.03443   0.02813  -0.0426  0.0365  1.0000  -7.4304   0.0000   0.0000   0.0000   0.2616
  13.000   1.4680   0.03610   0.02983  -0.0415  0.0341  1.0000  -7.5746   0.0000   0.0000   0.0000   0.2605
  13.200   1.4638   0.03832   0.03211  -0.0404  0.0315  1.0000  -7.6684   0.0000   0.0000   0.0000   0.2594
  13.400   1.4537   0.04127   0.03515  -0.0392  0.0293  1.0000  -7.6979   0.0000   0.0000   0.0000   0.2584
  13.600   1.4628   0.04235   0.03635  -0.0389  0.0279  1.0000  -7.9100   0.0000   0.0000   0.0000   0.2576
  13.800   1.4674   0.04394   0.03805  -0.0386  0.0257  1.0000  -8.0752   0.0000   0.0000   0.0000   0.2569
  14.000   1.4685   0.04597   0.04013  -0.0384  0.0231  1.0000  -8.2078   0.0000   0.0000   0.0000   0.2563
  14.200   1.4612   0.04905   0.04325  -0.0384  0.0208  1.0000  -8.2567   0.0000   0.0000   0.0000   0.2560
  14.400   1.4423   0.05374   0.04806  -0.0386  0.0188  1.0000  -8.1712   0.0000   0.0000   0.0000   0.2562
  14.600   1.4455   0.05588   0.05030  -0.0389  0.0166  1.0000  -8.2778   0.0000   0.0000   0.0000   0.2559
  14.800   1.4410   0.05909   0.05365  -0.0396  0.0148  1.0000  -8.3609   0.0000   0.0000   0.0000   0.2560
  15.000   1.4325   0.06298   0.05760  -0.0406  0.0136  1.0000  -8.4053   0.0000   0.0000   0.0000   0.2564


