xflr5 v6.61

 Calculated polar for: SD7032-099-88

 1 1 Reynolds number fixed          Mach number fixed         

 xtrf =   1.000 (top)        1.000 (bottom)
 Mach =   0.000     Re =     0.400 e 6     Ncrit =   9.000

  alpha     CL        CD       CDp       Cm    Top Xtr Bot Xtr   Cpmin    Chinge    XCp    
 ------- -------- --------- --------- -------- ------- ------- -------- --------- ---------
 -10.000  -0.3157   0.10721   0.10461  -0.0349  1.0000  0.0155  -1.7484   0.0000   0.0000   0.0000   0.1298
  -9.800  -0.3131   0.10494   0.10236  -0.0352  1.0000  0.0157  -1.7449   0.0000   0.0000   0.0000   0.1279
  -9.600  -0.3111   0.10267   0.10011  -0.0356  1.0000  0.0160  -1.7464   0.0000   0.0000   0.0000   0.1263
  -9.400  -0.3097   0.10043   0.09789  -0.0358  1.0000  0.0163  -1.7525   0.0000   0.0000   0.0000   0.1251
  -9.200  -0.3091   0.09824   0.09573  -0.0359  1.0000  0.0166  -1.7633   0.0000   0.0000   0.0000   0.1248
  -9.000  -0.3098   0.09613   0.09366  -0.0358  1.0000  0.0168  -1.7786   0.0000   0.0000   0.0000   0.1257
  -8.800  -0.3122   0.09416   0.09173  -0.0354  1.0000  0.0171  -1.7982   0.0000   0.0000   0.0000   0.1283
  -8.600  -0.3168   0.09240   0.09001  -0.0344  1.0000  0.0174  -1.8220   0.0000   0.0000   0.0000   0.1334
  -8.400  -0.3239   0.09086   0.08851  -0.0329  1.0000  0.0176  -1.8494   0.0000   0.0000   0.0000   0.1407
  -8.200  -0.3328   0.08948   0.08717  -0.0311  1.0000  0.0178  -1.8795   0.0000   0.0000   0.0000   0.1493
  -8.000  -0.3429   0.08819   0.08593  -0.0292  1.0000  0.0180  -1.9118   0.0000   0.0000   0.0000   0.1582
  -7.800  -0.3315   0.08442   0.08216  -0.0338  0.9977  0.0188  -1.9542   0.0000   0.0000   0.0000   0.1413
  -7.600  -0.3179   0.08023   0.07798  -0.0398  0.9941  0.0198  -2.0275   0.0000   0.0000   0.0000   0.1180
  -7.400  -0.2980   0.07628   0.07403  -0.0476  0.9901  0.0212  -2.1158   0.0000   0.0000   0.0000   0.0832
  -7.200  -0.2856   0.07228   0.07004  -0.0536  0.9836  0.0214  -2.1824   0.0000   0.0000   0.0000   0.0550
  -7.000  -0.2646   0.06642   0.06416  -0.0638  0.9785  0.0216  -2.2862   0.0000   0.0000   0.0000   0.0011
  -6.800  -0.2403   0.05930   0.05695  -0.0756  0.9748  0.0216  -2.4404   0.0000   0.0000   0.0000  -0.0728
  -6.600  -0.2160   0.05230   0.04977  -0.0855  0.9722  0.0217  -2.6180   0.0000   0.0000   0.0000  -0.1547
  -6.200  -0.1999   0.03709   0.03399  -0.0974  0.9587  0.0233  -3.0948   0.0000   0.0000   0.0000  -0.2473
  -6.000  -0.1773   0.03509   0.03194  -0.0998  0.9557  0.0244  -2.9232   0.0000   0.0000   0.0000  -0.3239
  -5.800  -0.1531   0.03313   0.02986  -0.1021  0.9528  0.0256  -2.7716   0.0000   0.0000   0.0000  -0.4290
  -5.600  -0.1293   0.03100   0.02755  -0.1041  0.9497  0.0272  -2.6541   0.0000   0.0000   0.0000  -0.5690
  -5.400  -0.1003   0.03455   0.03100  -0.1026  0.9451  0.0335  -2.3524   0.0000   0.0000   0.0000  -0.7892
  -5.200  -0.0960   0.02703   0.02298  -0.1041  0.9365  0.0357  -2.5369   0.0000   0.0000   0.0000  -0.8512
  -5.000  -0.0749   0.02166   0.01692  -0.1035  0.9316  0.0225  -2.8297   0.0000   0.0000   0.0000  -1.1535
  -4.800  -0.0545   0.01889   0.01386  -0.1034  0.9275  0.0201  -2.8043   0.0000   0.0000   0.0000  -1.6773
  -4.600  -0.0356   0.01703   0.01171  -0.1027  0.9219  0.0197  -2.7406   0.0000   0.0000   0.0000  -2.6759
  -4.400  -0.0160   0.01563   0.01010  -0.1020  0.9158  0.0198  -2.7018   0.0000   0.0000   0.0000  -6.2113
  -4.200   0.0051   0.01456   0.00886  -0.1014  0.9104  0.0205  -2.6574   0.0000   0.0000   0.0000  20.4906
  -4.000   0.0270   0.01408   0.00826  -0.1009  0.9057  0.0215  -2.5638   0.0000   0.0000   0.0000   4.0402
  -3.800   0.0463   0.01221   0.00620  -0.1003  0.9006  0.0250  -2.5956   0.0000   0.0000   0.0000   2.4450
  -3.600   0.0665   0.01176   0.00575  -0.0998  0.8938  0.0278  -2.4620   0.0000   0.0000   0.0000   1.7676
  -3.400   0.0879   0.01153   0.00549  -0.0994  0.8876  0.0316  -2.3000   0.0000   0.0000   0.0000   1.3936
  -3.200   0.1096   0.01130   0.00520  -0.0990  0.8821  0.0340  -2.1416   0.0000   0.0000   0.0000   1.1628
  -3.000   0.1303   0.01048   0.00425  -0.0985  0.8760  0.0377  -2.0367   0.0000   0.0000   0.0000   1.0132
  -2.800   0.1516   0.01012   0.00387  -0.0982  0.8685  0.0419  -1.8853   0.0000   0.0000   0.0000   0.9034
  -2.600   0.1732   0.00985   0.00355  -0.0978  0.8617  0.0471  -1.7284   0.0000   0.0000   0.0000   0.8191
  -2.400   0.1955   0.00950   0.00312  -0.0975  0.8556  0.0585  -1.5895   0.0000   0.0000   0.0000   0.7521
  -2.200   0.2165   0.00891   0.00287  -0.0974  0.8474  0.1422  -1.4490   0.0000   0.0000   0.0000   0.7025
  -2.000   0.2378   0.00850   0.00271  -0.0972  0.8394  0.2275  -1.2910   0.0000   0.0000   0.0000   0.6611
  -1.800   0.2595   0.00817   0.00257  -0.0971  0.8323  0.3080  -1.1314   0.0000   0.0000   0.0000   0.6259
  -1.600   0.2805   0.00779   0.00251  -0.0970  0.8231  0.4091  -0.9775   0.0000   0.0000   0.0000   0.5970
  -1.400   0.3015   0.00744   0.00245  -0.0967  0.8142  0.5178  -0.8323   0.0000   0.0000   0.0000   0.5716
  -1.200   0.3223   0.00720   0.00242  -0.0963  0.8056  0.6018  -0.7254   0.0000   0.0000   0.0000   0.5492
  -1.000   0.3429   0.00702   0.00241  -0.0957  0.7953  0.6673  -0.6393   0.0000   0.0000   0.0000   0.5293
  -0.600   0.3808   0.00671   0.00241  -0.0936  0.7753  0.8054  -0.6355   0.0000   0.0000   0.0000   0.4953
  -0.400   0.3987   0.00663   0.00236  -0.0922  0.7649  0.8525  -0.6546   0.0000   0.0000   0.0000   0.4804
  -0.200   0.4153   0.00653   0.00233  -0.0905  0.7541  0.8998  -0.6730   0.0000   0.0000   0.0000   0.4669
   0.200   0.4700   0.00642   0.00213  -0.0920  0.7307  1.0000  -0.7226   0.0000   0.0000   0.0000   0.4444
   0.400   0.4918   0.00650   0.00209  -0.0919  0.7186  1.0000  -0.7452   0.0000   0.0000   0.0000   0.4352
   0.600   0.5139   0.00657   0.00208  -0.0918  0.7066  1.0000  -0.7688   0.0000   0.0000   0.0000   0.4268
   0.800   0.5356   0.00667   0.00206  -0.0916  0.6939  1.0000  -0.7941   0.0000   0.0000   0.0000   0.4190
   1.000   0.5575   0.00675   0.00206  -0.0915  0.6806  1.0000  -0.8201   0.0000   0.0000   0.0000   0.4119
   1.200   0.5792   0.00687   0.00207  -0.0913  0.6677  1.0000  -0.8471   0.0000   0.0000   0.0000   0.4053
   1.400   0.6010   0.00696   0.00209  -0.0912  0.6544  1.0000  -0.8760   0.0000   0.0000   0.0000   0.3992
   1.600   0.6226   0.00707   0.00212  -0.0910  0.6412  1.0000  -0.9049   0.0000   0.0000   0.0000   0.3934
   1.800   0.6440   0.00720   0.00215  -0.0908  0.6266  1.0000  -0.9339   0.0000   0.0000   0.0000   0.3880
   2.000   0.6655   0.00732   0.00220  -0.0906  0.6123  1.0000  -0.9633   0.0000   0.0000   0.0000   0.3830
   2.200   0.6867   0.00747   0.00226  -0.0904  0.5981  1.0000  -0.9957   0.0000   0.0000   0.0000   0.3783
   2.400   0.7081   0.00759   0.00232  -0.0902  0.5834  1.0000  -1.0285   0.0000   0.0000   0.0000   0.3739
   2.600   0.7294   0.00774   0.00239  -0.0900  0.5694  1.0000  -1.0614   0.0000   0.0000   0.0000   0.3697
   2.800   0.7503   0.00790   0.00246  -0.0897  0.5544  1.0000  -1.0942   0.0000   0.0000   0.0000   0.3657
   3.000   0.7716   0.00804   0.00255  -0.0895  0.5402  1.0000  -1.1275   0.0000   0.0000   0.0000   0.3619
   3.200   0.7925   0.00821   0.00264  -0.0893  0.5270  1.0000  -1.1607   0.0000   0.0000   0.0000   0.3584
   3.400   0.8136   0.00836   0.00274  -0.0890  0.5125  1.0000  -1.1975   0.0000   0.0000   0.0000   0.3550
   3.600   0.8345   0.00854   0.00288  -0.0888  0.4982  1.0000  -1.2353   0.0000   0.0000   0.0000   0.3517
   4.000   0.8761   0.00889   0.00312  -0.0883  0.4703  1.0000  -1.3114   0.0000   0.0000   0.0000   0.3457
   4.200   0.8965   0.00911   0.00326  -0.0880  0.4574  1.0000  -1.3541   0.0000   0.0000   0.0000   0.3429
   4.400   0.9174   0.00927   0.00340  -0.0878  0.4441  1.0000  -1.3984   0.0000   0.0000   0.0000   0.3402
   4.600   0.9377   0.00948   0.00355  -0.0874  0.4307  1.0000  -1.4444   0.0000   0.0000   0.0000   0.3376
   4.800   0.9579   0.00970   0.00371  -0.0871  0.4163  1.0000  -1.4957   0.0000   0.0000   0.0000   0.3350
   5.000   0.9784   0.00989   0.00391  -0.0868  0.4033  1.0000  -1.5479   0.0000   0.0000   0.0000   0.3326
   5.200   0.9981   0.01015   0.00410  -0.0864  0.3903  1.0000  -1.6089   0.0000   0.0000   0.0000   0.3302
   5.400   1.0186   0.01033   0.00428  -0.0862  0.3774  1.0000  -1.6766   0.0000   0.0000   0.0000   0.3280
   5.600   1.0380   0.01061   0.00448  -0.0857  0.3639  1.0000  -1.7499   0.0000   0.0000   0.0000   0.3258
   5.800   1.0581   0.01082   0.00468  -0.0854  0.3509  1.0000  -1.8254   0.0000   0.0000   0.0000   0.3237
   6.000   1.0776   0.01108   0.00490  -0.0850  0.3382  1.0000  -1.9006   0.0000   0.0000   0.0000   0.3216
   6.200   1.0969   0.01134   0.00512  -0.0846  0.3245  1.0000  -1.9766   0.0000   0.0000   0.0000   0.3196
   6.400   1.1165   0.01159   0.00535  -0.0842  0.3125  1.0000  -2.0539   0.0000   0.0000   0.0000   0.3176
   6.600   1.1351   0.01190   0.00564  -0.0837  0.2988  1.0000  -2.1395   0.0000   0.0000   0.0000   0.3157
   6.800   1.1545   0.01215   0.00588  -0.0833  0.2853  1.0000  -2.2324   0.0000   0.0000   0.0000   0.3138
   7.000   1.1725   0.01250   0.00616  -0.0827  0.2716  1.0000  -2.3234   0.0000   0.0000   0.0000   0.3119
   7.200   1.1914   0.01277   0.00643  -0.0822  0.2585  1.0000  -2.4272   0.0000   0.0000   0.0000   0.3102
   7.400   1.2096   0.01310   0.00673  -0.0816  0.2469  1.0000  -2.5356   0.0000   0.0000   0.0000   0.3084
   7.600   1.2280   0.01341   0.00703  -0.0811  0.2352  1.0000  -2.6459   0.0000   0.0000   0.0000   0.3067
   7.800   1.2457   0.01376   0.00736  -0.0804  0.2242  1.0000  -2.8111   0.0000   0.0000   0.0000   0.3049
   8.000   1.2634   0.01410   0.00768  -0.0798  0.2123  1.0000  -3.0160   0.0000   0.0000   0.0000   0.3033
   8.200   1.2806   0.01447   0.00807  -0.0791  0.2006  1.0000  -3.2176   0.0000   0.0000   0.0000   0.3016
   8.400   1.2971   0.01488   0.00843  -0.0783  0.1879  1.0000  -3.4232   0.0000   0.0000   0.0000   0.2999
   8.600   1.3141   0.01524   0.00881  -0.0776  0.1775  1.0000  -3.6376   0.0000   0.0000   0.0000   0.2983
   8.800   1.3297   0.01569   0.00922  -0.0767  0.1660  1.0000  -3.8498   0.0000   0.0000   0.0000   0.2966
   9.000   1.3459   0.01609   0.00963  -0.0758  0.1552  1.0000  -4.0693   0.0000   0.0000   0.0000   0.2950
   9.200   1.3598   0.01662   0.01010  -0.0747  0.1423  1.0000  -4.2807   0.0000   0.0000   0.0000   0.2933
   9.400   1.3753   0.01704   0.01053  -0.0737  0.1315  1.0000  -4.5045   0.0000   0.0000   0.0000   0.2917
   9.600   1.3873   0.01767   0.01109  -0.0723  0.1185  1.0000  -4.7103   0.0000   0.0000   0.0000   0.2899
   9.800   1.4012   0.01814   0.01157  -0.0712  0.1075  1.0000  -4.9319   0.0000   0.0000   0.0000   0.2883
  10.000   1.4110   0.01878   0.01216  -0.0694  0.0957  1.0000  -5.1299   0.0000   0.0000   0.0000   0.2863
  10.200   1.4197   0.01942   0.01275  -0.0674  0.0854  1.0000  -5.3238   0.0000   0.0000   0.0000   0.2844
  10.400   1.4275   0.02011   0.01347  -0.0653  0.0763  1.0000  -5.5153   0.0000   0.0000   0.0000   0.2823
  10.600   1.4356   0.02077   0.01413  -0.0634  0.0691  1.0000  -5.7111   0.0000   0.0000   0.0000   0.2804
  10.800   1.4385   0.02177   0.01508  -0.0608  0.0605  1.0000  -5.8669   0.0000   0.0000   0.0000   0.2782
  11.000   1.4502   0.02226   0.01564  -0.0595  0.0568  1.0000  -6.0932   0.0000   0.0000   0.0000   0.2767
  11.200   1.4580   0.02299   0.01638  -0.0578  0.0519  1.0000  -6.2934   0.0000   0.0000   0.0000   0.2750
  11.400   1.4620   0.02399   0.01735  -0.0557  0.0464  1.0000  -6.4639   0.0000   0.0000   0.0000   0.2731
  11.600   1.4668   0.02496   0.01838  -0.0538  0.0429  1.0000  -6.6382   0.0000   0.0000   0.0000   0.2713
  11.800   1.4769   0.02560   0.01911  -0.0526  0.0409  1.0000  -6.8603   0.0000   0.0000   0.0000   0.2699
  12.000   1.4843   0.02644   0.02001  -0.0511  0.0382  1.0000  -7.0629   0.0000   0.0000   0.0000   0.2684
  12.200   1.4896   0.02746   0.02106  -0.0496  0.0355  1.0000  -7.2487   0.0000   0.0000   0.0000   0.2669
  12.400   1.4918   0.02875   0.02236  -0.0479  0.0325  1.0000  -7.4076   0.0000   0.0000   0.0000   0.2654
  12.600   1.4879   0.03055   0.02425  -0.0458  0.0295  1.0000  -7.5068   0.0000   0.0000   0.0000   0.2637
  12.800   1.4977   0.03134   0.02512  -0.0449  0.0283  1.0000  -7.7323   0.0000   0.0000   0.0000   0.2625
  13.000   1.5056   0.03230   0.02617  -0.0440  0.0266  1.0000  -7.9402   0.0000   0.0000   0.0000   0.2614
  13.200   1.5106   0.03354   0.02746  -0.0430  0.0242  1.0000  -8.1220   0.0000   0.0000   0.0000   0.2603
  13.400   1.5109   0.03524   0.02916  -0.0419  0.0214  1.0000  -8.2599   0.0000   0.0000   0.0000   0.2591
  13.600   1.5047   0.03764   0.03163  -0.0407  0.0185  1.0000  -8.3195   0.0000   0.0000   0.0000   0.2580
  13.800   1.5100   0.03904   0.03309  -0.0401  0.0155  1.0000  -8.4721   0.0000   0.0000   0.0000   0.2572
  14.000   1.5003   0.04205   0.03614  -0.0393  0.0126  1.0000  -8.5077   0.0000   0.0000   0.0000   0.2564
  14.200   1.4897   0.04535   0.03956  -0.0388  0.0109  1.0000  -8.5230   0.0000   0.0000   0.0000   0.2559
  14.400   1.4860   0.04803   0.04236  -0.0387  0.0098  1.0000  -8.6233   0.0000   0.0000   0.0000   0.2554
  14.600   1.4810   0.05099   0.04542  -0.0388  0.0091  1.0000  -8.7157   0.0000   0.0000   0.0000   0.2552
  14.800   1.4746   0.05427   0.04880  -0.0392  0.0086  1.0000  -8.7937   0.0000   0.0000   0.0000   0.2551
  15.000   1.4665   0.05795   0.05258  -0.0400  0.0082  1.0000  -8.8490   0.0000   0.0000   0.0000   0.2553


