xflr5 v6.61

 Calculated polar for: SD7032-099-88

 1 1 Reynolds number fixed          Mach number fixed         

 xtrf =   1.000 (top)        1.000 (bottom)
 Mach =   0.000     Re =     0.250 e 6     Ncrit =   9.000

  alpha     CL        CD       CDp       Cm    Top Xtr Bot Xtr   Cpmin    Chinge    XCp    
 ------- -------- --------- --------- -------- ------- ------- -------- --------- ---------
 -10.000  -0.3171   0.10886   0.10560  -0.0357  1.0000  0.0238  -1.7288   0.0000   0.0000   0.0000   0.1278
  -9.800  -0.3136   0.10667   0.10343  -0.0357  1.0000  0.0243  -1.7077   0.0000   0.0000   0.0000   0.1265
  -9.600  -0.3108   0.10447   0.10126  -0.0359  1.0000  0.0247  -1.6969   0.0000   0.0000   0.0000   0.1253
  -9.400  -0.3087   0.10230   0.09911  -0.0360  1.0000  0.0252  -1.6942   0.0000   0.0000   0.0000   0.1243
  -9.200  -0.3075   0.10015   0.09699  -0.0361  1.0000  0.0258  -1.6983   0.0000   0.0000   0.0000   0.1237
  -9.000  -0.3072   0.09804   0.09492  -0.0361  1.0000  0.0263  -1.7084   0.0000   0.0000   0.0000   0.1238
  -8.800  -0.3081   0.09600   0.09292  -0.0360  1.0000  0.0268  -1.7238   0.0000   0.0000   0.0000   0.1249
  -8.600  -0.3105   0.09407   0.09103  -0.0355  1.0000  0.0274  -1.7441   0.0000   0.0000   0.0000   0.1275
  -8.400  -0.3147   0.09228   0.08930  -0.0348  1.0000  0.0279  -1.7690   0.0000   0.0000   0.0000   0.1318
  -8.200  -0.3210   0.09067   0.08773  -0.0336  1.0000  0.0284  -1.7977   0.0000   0.0000   0.0000   0.1380
  -8.000  -0.3292   0.08920   0.08632  -0.0321  1.0000  0.0288  -1.8296   0.0000   0.0000   0.0000   0.1455
  -7.800  -0.3390   0.08787   0.08503  -0.0304  1.0000  0.0292  -1.8641   0.0000   0.0000   0.0000   0.1538
  -7.600  -0.3504   0.08664   0.08386  -0.0285  1.0000  0.0295  -1.9005   0.0000   0.0000   0.0000   0.1626
  -7.400  -0.3633   0.08553   0.08281  -0.0264  1.0000  0.0297  -1.9381   0.0000   0.0000   0.0000   0.1717
  -7.200  -0.3709   0.08377   0.08110  -0.0264  0.9989  0.0302  -1.9841   0.0000   0.0000   0.0000   0.1736
  -7.000  -0.3507   0.07917   0.07649  -0.0370  0.9927  0.0323  -2.1003   0.0000   0.0000   0.0000   0.1391
  -6.800  -0.3222   0.07410   0.07138  -0.0495  0.9868  0.0333  -2.1949   0.0000   0.0000   0.0000   0.0908
  -6.600  -0.3012   0.06839   0.06558  -0.0588  0.9807  0.0335  -2.3020   0.0000   0.0000   0.0000   0.0488
  -6.400  -0.2896   0.05861   0.05563  -0.0696  0.9753  0.0343  -2.5677   0.0000   0.0000   0.0000   0.0036
  -6.200  -0.2747   0.05363   0.05064  -0.0740  0.9726  0.0362  -2.5114   0.0000   0.0000   0.0000  -0.0256
  -6.000  -0.2561   0.05202   0.04904  -0.0754  0.9688  0.0381  -2.3546   0.0000   0.0000   0.0000  -0.0510
  -5.800  -0.2392   0.05057   0.04756  -0.0767  0.9628  0.0420  -2.2166   0.0000   0.0000   0.0000  -0.0772
  -5.600  -0.1999   0.04956   0.04613  -0.0825  0.9578  0.0502  -2.2009   0.0000   0.0000   0.0000  -0.1704
  -5.400  -0.1834   0.04069   0.03686  -0.0894  0.9537  0.0523  -2.3544   0.0000   0.0000   0.0000  -0.2462
  -5.200  -0.1579   0.03729   0.03346  -0.0926  0.9517  0.0549  -2.2208   0.0000   0.0000   0.0000  -0.3458
  -5.000  -0.1278   0.03500   0.03107  -0.0957  0.9501  0.0577  -2.0759   0.0000   0.0000   0.0000  -0.5101
  -4.600  -0.0819   0.02480   0.01955  -0.0967  0.9381  0.0313  -2.4819   0.0000   0.0000   0.0000  -0.9490
  -4.400  -0.0544   0.02158   0.01586  -0.0980  0.9347  0.0294  -2.4694   0.0000   0.0000   0.0000  -1.5798
  -4.200  -0.0246   0.01938   0.01330  -0.0993  0.9319  0.0292  -2.4904   0.0000   0.0000   0.0000  -3.8493
  -4.000   0.0057   0.01784   0.01152  -0.1005  0.9293  0.0308  -2.4711   0.0000   0.0000   0.0000  18.1449
  -3.600   0.0543   0.01538   0.00875  -0.1009  0.9201  0.0378  -2.3575   0.0000   0.0000   0.0000   2.1317
  -3.400   0.0771   0.01483   0.00819  -0.1009  0.9139  0.0426  -2.2256   0.0000   0.0000   0.0000   1.5734
  -3.200   0.1025   0.01413   0.00742  -0.1011  0.9093  0.0462  -2.1066   0.0000   0.0000   0.0000   1.2464
  -3.000   0.1293   0.01366   0.00686  -0.1016  0.9054  0.0498  -1.9540   0.0000   0.0000   0.0000   1.0434
  -2.800   0.1522   0.01281   0.00597  -0.1015  0.9004  0.0567  -1.8352   0.0000   0.0000   0.0000   0.9228
  -2.600   0.1715   0.01238   0.00552  -0.1007  0.8921  0.0648  -1.7097   0.0000   0.0000   0.0000   0.8417
  -2.400   0.1946   0.01162   0.00491  -0.1005  0.8860  0.1097  -1.5910   0.0000   0.0000   0.0000   0.7706
  -2.200   0.2175   0.01078   0.00459  -0.1008  0.8811  0.2549  -1.4386   0.0000   0.0000   0.0000   0.7166
  -2.000   0.2371   0.01027   0.00448  -0.1004  0.8735  0.3732  -1.2870   0.0000   0.0000   0.0000   0.6758
  -1.800   0.2566   0.00975   0.00440  -0.0998  0.8655  0.5047  -1.1359   0.0000   0.0000   0.0000   0.6407
  -1.600   0.2772   0.00935   0.00428  -0.0990  0.8592  0.6081  -0.9822   0.0000   0.0000   0.0000   0.6085
  -1.400   0.2965   0.00910   0.00422  -0.0979  0.8518  0.6819  -0.8445   0.0000   0.0000   0.0000   0.5812
  -1.200   0.3132   0.00887   0.00420  -0.0961  0.8427  0.7623  -0.7425   0.0000   0.0000   0.0000   0.5575
  -1.000   0.3294   0.00863   0.00409  -0.0940  0.8353  0.8301  -0.6616   0.0000   0.0000   0.0000   0.5355
  -0.800   0.3447   0.00848   0.00400  -0.0917  0.8264  0.8827  -0.6057   0.0000   0.0000   0.0000   0.5160
  -0.600   0.3676   0.00829   0.00382  -0.0911  0.8172  0.9397  -0.6261   0.0000   0.0000   0.0000   0.4974
  -0.400   0.4068   0.00811   0.00351  -0.0942  0.8100  1.0000  -0.6575   0.0000   0.0000   0.0000   0.4809
  -0.200   0.4273   0.00812   0.00344  -0.0938  0.7984  1.0000  -0.6778   0.0000   0.0000   0.0000   0.4687
   0.000   0.4493   0.00811   0.00329  -0.0936  0.7887  1.0000  -0.6993   0.0000   0.0000   0.0000   0.4572
   0.200   0.4707   0.00814   0.00324  -0.0933  0.7774  1.0000  -0.7204   0.0000   0.0000   0.0000   0.4469
   0.400   0.4926   0.00816   0.00314  -0.0930  0.7665  1.0000  -0.7433   0.0000   0.0000   0.0000   0.4374
   0.600   0.5141   0.00821   0.00310  -0.0928  0.7548  1.0000  -0.7666   0.0000   0.0000   0.0000   0.4288
   0.800   0.5359   0.00825   0.00302  -0.0925  0.7429  1.0000  -0.7920   0.0000   0.0000   0.0000   0.4207
   1.000   0.5575   0.00831   0.00301  -0.0923  0.7305  1.0000  -0.8177   0.0000   0.0000   0.0000   0.4134
   1.200   0.5792   0.00839   0.00297  -0.0920  0.7185  1.0000  -0.8445   0.0000   0.0000   0.0000   0.4065
   1.400   0.6007   0.00847   0.00298  -0.0917  0.7051  1.0000  -0.8731   0.0000   0.0000   0.0000   0.4002
   1.600   0.6223   0.00858   0.00296  -0.0914  0.6926  1.0000  -0.9021   0.0000   0.0000   0.0000   0.3943
   1.800   0.6435   0.00867   0.00300  -0.0912  0.6783  1.0000  -0.9308   0.0000   0.0000   0.0000   0.3888
   2.000   0.6649   0.00879   0.00302  -0.0909  0.6653  1.0000  -0.9599   0.0000   0.0000   0.0000   0.3836
   2.200   0.6861   0.00891   0.00308  -0.0906  0.6509  1.0000  -0.9919   0.0000   0.0000   0.0000   0.3788
   2.400   0.7072   0.00903   0.00313  -0.0903  0.6364  1.0000  -1.0244   0.0000   0.0000   0.0000   0.3742
   2.600   0.7281   0.00920   0.00317  -0.0899  0.6223  1.0000  -1.0570   0.0000   0.0000   0.0000   0.3699
   2.800   0.7491   0.00933   0.00326  -0.0896  0.6070  1.0000  -1.0897   0.0000   0.0000   0.0000   0.3658
   3.000   0.7699   0.00949   0.00334  -0.0893  0.5926  1.0000  -1.1225   0.0000   0.0000   0.0000   0.3620
   3.200   0.7905   0.00967   0.00342  -0.0889  0.5778  1.0000  -1.1555   0.0000   0.0000   0.0000   0.3583
   3.400   0.8113   0.00982   0.00354  -0.0886  0.5627  1.0000  -1.1916   0.0000   0.0000   0.0000   0.3548
   3.600   0.8318   0.01002   0.00368  -0.0883  0.5485  1.0000  -1.2289   0.0000   0.0000   0.0000   0.3515
   3.800   0.8523   0.01020   0.00381  -0.0879  0.5340  1.0000  -1.2664   0.0000   0.0000   0.0000   0.3483
   4.000   0.8728   0.01039   0.00396  -0.0876  0.5196  1.0000  -1.3041   0.0000   0.0000   0.0000   0.3453
   4.200   0.8927   0.01063   0.00409  -0.0871  0.5051  1.0000  -1.3460   0.0000   0.0000   0.0000   0.3424
   4.400   0.9130   0.01081   0.00426  -0.0868  0.4900  1.0000  -1.3895   0.0000   0.0000   0.0000   0.3396
   4.600   0.9332   0.01104   0.00443  -0.0864  0.4765  1.0000  -1.4341   0.0000   0.0000   0.0000   0.3369
   4.800   0.9531   0.01128   0.00461  -0.0860  0.4627  1.0000  -1.4849   0.0000   0.0000   0.0000   0.3343
   5.000   0.9731   0.01150   0.00485  -0.0856  0.4490  1.0000  -1.5362   0.0000   0.0000   0.0000   0.3319
   5.200   0.9923   0.01179   0.00505  -0.0851  0.4351  1.0000  -1.5953   0.0000   0.0000   0.0000   0.3294
   5.400   1.0122   0.01200   0.00527  -0.0847  0.4205  1.0000  -1.6577   0.0000   0.0000   0.0000   0.3271
   5.600   1.0315   0.01227   0.00550  -0.0842  0.4076  1.0000  -1.7304   0.0000   0.0000   0.0000   0.3249
   5.800   1.0507   0.01254   0.00574  -0.0838  0.3938  1.0000  -1.8037   0.0000   0.0000   0.0000   0.3227
   6.000   1.0700   0.01281   0.00599  -0.0833  0.3803  1.0000  -1.8780   0.0000   0.0000   0.0000   0.3206
   6.200   1.0882   0.01315   0.00625  -0.0827  0.3666  1.0000  -1.9516   0.0000   0.0000   0.0000   0.3185
   6.400   1.1075   0.01339   0.00652  -0.0822  0.3531  1.0000  -2.0277   0.0000   0.0000   0.0000   0.3165
   6.600   1.1256   0.01374   0.00685  -0.0816  0.3399  1.0000  -2.1079   0.0000   0.0000   0.0000   0.3145
   6.800   1.1440   0.01402   0.00714  -0.0810  0.3261  1.0000  -2.1979   0.0000   0.0000   0.0000   0.3125
   7.000   1.1621   0.01436   0.00746  -0.0804  0.3133  1.0000  -2.2880   0.0000   0.0000   0.0000   0.3106
   7.200   1.1794   0.01472   0.00778  -0.0796  0.2994  1.0000  -2.3815   0.0000   0.0000   0.0000   0.3087
   7.400   1.1974   0.01503   0.00811  -0.0790  0.2858  1.0000  -2.4882   0.0000   0.0000   0.0000   0.3069
   7.600   1.2135   0.01547   0.00848  -0.0781  0.2726  1.0000  -2.5916   0.0000   0.0000   0.0000   0.3051
   7.800   1.2313   0.01577   0.00882  -0.0775  0.2592  1.0000  -2.7108   0.0000   0.0000   0.0000   0.3033
   8.000   1.2475   0.01620   0.00922  -0.0766  0.2472  1.0000  -2.9041   0.0000   0.0000   0.0000   0.3016
   8.200   1.2642   0.01658   0.00962  -0.0758  0.2352  1.0000  -3.1046   0.0000   0.0000   0.0000   0.2998
   8.400   1.2799   0.01703   0.01011  -0.0749  0.2241  1.0000  -3.2962   0.0000   0.0000   0.0000   0.2981
   8.600   1.2956   0.01744   0.01053  -0.0740  0.2120  1.0000  -3.4989   0.0000   0.0000   0.0000   0.2964
   8.800   1.3106   0.01790   0.01100  -0.0730  0.2001  1.0000  -3.7023   0.0000   0.0000   0.0000   0.2947
   9.000   1.3243   0.01840   0.01147  -0.0718  0.1875  1.0000  -3.9042   0.0000   0.0000   0.0000   0.2929
   9.200   1.3388   0.01887   0.01197  -0.0707  0.1759  1.0000  -4.1131   0.0000   0.0000   0.0000   0.2912
   9.400   1.3504   0.01948   0.01254  -0.0693  0.1640  1.0000  -4.3084   0.0000   0.0000   0.0000   0.2894
   9.600   1.3639   0.01997   0.01308  -0.0681  0.1523  1.0000  -4.5183   0.0000   0.0000   0.0000   0.2877
  10.000   1.3823   0.02121   0.01429  -0.0644  0.1280  1.0000  -4.8943   0.0000   0.0000   0.0000   0.2838
  10.200   1.3878   0.02203   0.01506  -0.0621  0.1166  1.0000  -5.0605   0.0000   0.0000   0.0000   0.2817
  10.400   1.3962   0.02274   0.01578  -0.0603  0.1058  1.0000  -5.2464   0.0000   0.0000   0.0000   0.2798
  10.600   1.3997   0.02374   0.01675  -0.0579  0.0963  1.0000  -5.3988   0.0000   0.0000   0.0000   0.2777
  10.800   1.4074   0.02454   0.01764  -0.0561  0.0880  1.0000  -5.5869   0.0000   0.0000   0.0000   0.2759
  11.000   1.4072   0.02585   0.01889  -0.0536  0.0801  1.0000  -5.7147   0.0000   0.0000   0.0000   0.2738
  11.200   1.4146   0.02674   0.01988  -0.0520  0.0750  1.0000  -5.8957   0.0000   0.0000   0.0000   0.2721
  11.400   1.4209   0.02770   0.02091  -0.0504  0.0698  1.0000  -6.0730   0.0000   0.0000   0.0000   0.2705
  11.600   1.4224   0.02903   0.02224  -0.0485  0.0652  1.0000  -6.2146   0.0000   0.0000   0.0000   0.2688
  11.800   1.4171   0.03102   0.02426  -0.0460  0.0604  1.0000  -6.2941   0.0000   0.0000   0.0000   0.2668
  12.000   1.4257   0.03190   0.02526  -0.0450  0.0579  1.0000  -6.4909   0.0000   0.0000   0.0000   0.2655
  12.200   1.4328   0.03292   0.02638  -0.0439  0.0542  1.0000  -6.6802   0.0000   0.0000   0.0000   0.2643
  12.400   1.4369   0.03417   0.02768  -0.0428  0.0502  1.0000  -6.8540   0.0000   0.0000   0.0000   0.2631
  12.600   1.4343   0.03609   0.02960  -0.0415  0.0463  1.0000  -6.9676   0.0000   0.0000   0.0000   0.2619
  12.800   1.4304   0.03830   0.03188  -0.0401  0.0430  1.0000  -7.0593   0.0000   0.0000   0.0000   0.2606
  13.000   1.4400   0.03922   0.03292  -0.0397  0.0405  1.0000  -7.2794   0.0000   0.0000   0.0000   0.2598
  13.200   1.4444   0.04069   0.03449  -0.0391  0.0378  1.0000  -7.4508   0.0000   0.0000   0.0000   0.2589
  13.400   1.4461   0.04249   0.03636  -0.0386  0.0353  1.0000  -7.5989   0.0000   0.0000   0.0000   0.2581
  13.600   1.4431   0.04485   0.03877  -0.0381  0.0331  1.0000  -7.7016   0.0000   0.0000   0.0000   0.2575
  13.800   1.4343   0.04798   0.04196  -0.0377  0.0309  1.0000  -7.7414   0.0000   0.0000   0.0000   0.2569
  14.000   1.4262   0.05121   0.04531  -0.0375  0.0290  1.0000  -7.7736   0.0000   0.0000   0.0000   0.2565
  14.200   1.4305   0.05308   0.04732  -0.0377  0.0274  1.0000  -7.9271   0.0000   0.0000   0.0000   0.2561
  14.400   1.4305   0.05554   0.04989  -0.0380  0.0250  1.0000  -8.0335   0.0000   0.0000   0.0000   0.2559
  14.600   1.4275   0.05847   0.05290  -0.0386  0.0228  1.0000  -8.1125   0.0000   0.0000   0.0000   0.2560
  14.800   1.4180   0.06240   0.05687  -0.0396  0.0209  1.0000  -8.1256   0.0000   0.0000   0.0000   0.2565
  15.000   1.4010   0.06756   0.06212  -0.0409  0.0193  1.0000  -8.0401   0.0000   0.0000   0.0000   0.2573


