xflr5 v6.61

 Calculated polar for: SD7032-099-88

 1 1 Reynolds number fixed          Mach number fixed         

 xtrf =   1.000 (top)        1.000 (bottom)
 Mach =   0.000     Re =     0.050 e 6     Ncrit =   9.000

  alpha     CL        CD       CDp       Cm    Top Xtr Bot Xtr   Cpmin    Chinge    XCp    
 ------- -------- --------- --------- -------- ------- ------- -------- --------- ---------
 -10.000  -0.3448   0.12774   0.12075  -0.0316  1.0000  0.1616  -1.4650   0.0000   0.0000   0.0000   0.1505
  -9.800  -0.3603   0.12905   0.12219  -0.0332  1.0000  0.1624  -1.5320   0.0000   0.0000   0.0000   0.1506
  -9.600  -0.3209   0.11827   0.11133  -0.0302  1.0000  0.1681  -1.4025   0.0000   0.0000   0.0000   0.1475
  -9.400  -0.3120   0.11541   0.10849  -0.0295  1.0000  0.1738  -1.3728   0.0000   0.0000   0.0000   0.1470
  -9.200  -0.3124   0.11385   0.10700  -0.0296  1.0000  0.1797  -1.3788   0.0000   0.0000   0.0000   0.1471
  -9.000  -0.3268   0.11454   0.10781  -0.0306  1.0000  0.1843  -1.4329   0.0000   0.0000   0.0000   0.1488
  -8.800  -0.3486   0.11627   0.10971  -0.0316  1.0000  0.1857  -1.5070   0.0000   0.0000   0.0000   0.1528
  -8.600  -0.3168   0.10801   0.10140  -0.0296  1.0000  0.1912  -1.4079   0.0000   0.0000   0.0000   0.1493
  -8.400  -0.3073   0.10519   0.09860  -0.0283  1.0000  0.1979  -1.3710   0.0000   0.0000   0.0000   0.1503
  -8.200  -0.3124   0.10415   0.09765  -0.0280  1.0000  0.2045  -1.3841   0.0000   0.0000   0.0000   0.1532
  -8.000  -0.3364   0.10562   0.09930  -0.0280  1.0000  0.2085  -1.4517   0.0000   0.0000   0.0000   0.1605
  -7.800  -0.3643   0.10720   0.10108  -0.0269  1.0000  0.2095  -1.5202   0.0000   0.0000   0.0000   0.1708
  -7.600  -0.3120   0.09792   0.09165  -0.0251  1.0000  0.2221  -1.3650   0.0000   0.0000   0.0000   0.1630
  -7.400  -0.3243   0.09756   0.09142  -0.0239  1.0000  0.2292  -1.3880   0.0000   0.0000   0.0000   0.1703
  -7.200  -0.3498   0.09849   0.09252  -0.0221  1.0000  0.2318  -1.4425   0.0000   0.0000   0.0000   0.1816
  -7.000  -0.3244   0.09327   0.08728  -0.0205  1.0000  0.2444  -1.3620   0.0000   0.0000   0.0000   0.1811
  -6.800  -0.3374   0.09284   0.08697  -0.0183  1.0000  0.2520  -1.3777   0.0000   0.0000   0.0000   0.1906
  -6.600  -0.3629   0.09339   0.08767  -0.0159  1.0000  0.2549  -1.4236   0.0000   0.0000   0.0000   0.2019
  -6.400  -0.3471   0.08942   0.08368  -0.0138  1.0000  0.2673  -1.3696   0.0000   0.0000   0.0000   0.2055
  -6.200  -0.3605   0.08890   0.08326  -0.0113  1.0000  0.2754  -1.3819   0.0000   0.0000   0.0000   0.2145
  -6.000  -0.3886   0.08960   0.08416  -0.0113  1.0000  0.2799  -1.4430   0.0000   0.0000   0.0000   0.2174
  -5.800  -0.3680   0.08536   0.07989  -0.0070  1.0000  0.2944  -1.3654   0.0000   0.0000   0.0000   0.2272
  -5.600  -0.3932   0.08582   0.08048  -0.0070  1.0000  0.3034  -1.4172   0.0000   0.0000   0.0000   0.2290
  -5.200  -0.4076   0.08326   0.07806  -0.0047  1.0000  0.3286  -1.4233   0.0000   0.0000   0.0000   0.2357
  -5.000  -0.3900   0.07902   0.07387   0.0010  1.0000  0.3391  -1.3508   0.0000   0.0000   0.0000   0.2495
  -4.800  -0.4079   0.07850   0.07346   0.0006  1.0000  0.3555  -1.3836   0.0000   0.0000   0.0000   0.2489
  -4.600  -0.3962   0.07575   0.07073   0.0052  1.0000  0.3676  -1.3311   0.0000   0.0000   0.0000   0.2605
  -4.400  -0.4010   0.07403   0.06909   0.0073  1.0000  0.3848  -1.3245   0.0000   0.0000   0.0000   0.2658
  -3.800  -0.3110   0.05118   0.04455  -0.0439  1.0000  0.1615  -1.8691   0.0000   0.0000   0.0000   0.1057
  -3.600  -0.2840   0.04582   0.03869  -0.0474  1.0000  0.1368  -1.9807   0.0000   0.0000   0.0000   0.0797
  -3.400  -0.2649   0.04246   0.03517  -0.0485  1.0000  0.1305  -2.0004   0.0000   0.0000   0.0000   0.0635
  -3.200  -0.2383   0.03887   0.03099  -0.0508  1.0000  0.1228  -2.0696   0.0000   0.0000   0.0000   0.0330
  -3.000  -0.2128   0.03627   0.02773  -0.0521  1.0000  0.1200  -2.1176   0.0000   0.0000   0.0000   0.0008
  -2.800  -0.1964   0.03505   0.02649  -0.0520  1.0000  0.1275  -2.0644   0.0000   0.0000   0.0000  -0.0191
  -2.600  -0.1756   0.03363   0.02471  -0.0522  1.0000  0.1331  -2.0502   0.0000   0.0000   0.0000  -0.0522
  -2.400  -0.1543   0.03210   0.02278  -0.0523  1.0000  0.1348  -2.0436   0.0000   0.0000   0.0000  -0.0943
  -2.200  -0.1337   0.03091   0.02118  -0.0521  1.0000  0.1376  -2.0266   0.0000   0.0000   0.0000  -0.1455
  -2.000  -0.1145   0.02955   0.01965  -0.0518  1.0000  0.1424  -1.9918   0.0000   0.0000   0.0000  -0.2093
  -1.800  -0.0974   0.02871   0.01878  -0.0513  1.0000  0.1512  -1.9352   0.0000   0.0000   0.0000  -0.2832
  -1.600  -0.0804   0.02810   0.01805  -0.0507  1.0000  0.1683  -1.8747   0.0000   0.0000   0.0000  -0.3886
  -1.400  -0.0631   0.02751   0.01742  -0.0501  1.0000  0.1899  -1.8161   0.0000   0.0000   0.0000  -0.5527
  -1.200  -0.0429   0.02670   0.01671  -0.0498  1.0000  0.2307  -1.7674   0.0000   0.0000   0.0000  -0.9214
  -1.000  -0.0272   0.02369   0.01651  -0.0469  1.0000  0.6768  -1.7553   0.0000   0.0000   0.0000  -1.4936
  -0.800  -0.0212   0.02294   0.01592  -0.0438  1.0000  1.0000  -1.6935   0.0000   0.0000   0.0000  -1.8300
  -0.600  -0.0045   0.02345   0.01596  -0.0439  1.0000  1.0000  -1.5776   0.0000   0.0000   0.0000  -9.5568
  -0.400   0.0240   0.02427   0.01634  -0.0463  0.9942  1.0000  -1.4135   0.0000   0.0000   0.0000   2.1893
  -0.200   0.0639   0.02532   0.01697  -0.0507  0.9814  1.0000  -1.2075   0.0000   0.0000   0.0000   1.0463
   0.000   0.1068   0.02654   0.01778  -0.0555  0.9693  1.0000  -0.9915   0.0000   0.0000   0.0000   0.7699
   0.200   0.1396   0.02730   0.01827  -0.0584  0.9558  1.0000  -0.8531   0.0000   0.0000   0.0000   0.6683
   0.400   0.1758   0.02822   0.01895  -0.0618  0.9429  1.0000  -0.7101   0.0000   0.0000   0.0000   0.6010
   0.600   0.2125   0.02906   0.01956  -0.0652  0.9297  1.0000  -0.5967   0.0000   0.0000   0.0000   0.5556
   0.800   0.2409   0.02975   0.02009  -0.0671  0.9162  1.0000  -0.5436   0.0000   0.0000   0.0000   0.5272
   1.000   0.2834   0.03058   0.02072  -0.0711  0.9039  1.0000  -0.5759   0.0000   0.0000   0.0000   0.4993
   1.200   0.3043   0.03111   0.02114  -0.0717  0.8892  1.0000  -0.5942   0.0000   0.0000   0.0000   0.4836
   1.400   0.3476   0.03184   0.02174  -0.0755  0.8778  1.0000  -0.6295   0.0000   0.0000   0.0000   0.4652
   1.600   0.3675   0.03231   0.02214  -0.0758  0.8625  1.0000  -0.6497   0.0000   0.0000   0.0000   0.4539
   1.800   0.3986   0.03289   0.02264  -0.0776  0.8497  1.0000  -0.6786   0.0000   0.0000   0.0000   0.4422
   2.000   0.4310   0.03333   0.02302  -0.0795  0.8365  1.0000  -0.7094   0.0000   0.0000   0.0000   0.4317
   2.200   0.4532   0.03388   0.02352  -0.0799  0.8222  1.0000  -0.7345   0.0000   0.0000   0.0000   0.4234
   2.400   0.4967   0.03409   0.02368  -0.0829  0.8110  1.0000  -0.7786   0.0000   0.0000   0.0000   0.4139
   2.600   0.5102   0.03474   0.02431  -0.0821  0.7956  1.0000  -0.7962   0.0000   0.0000   0.0000   0.4077
   2.800   0.5634   0.03453   0.02410  -0.0860  0.7862  1.0000  -0.8510   0.0000   0.0000   0.0000   0.3992
   3.000   0.5709   0.03532   0.02487  -0.0843  0.7695  1.0000  -0.8658   0.0000   0.0000   0.0000   0.3942
   3.200   0.6025   0.03552   0.02509  -0.0854  0.7575  1.0000  -0.9047   0.0000   0.0000   0.0000   0.3881
   3.400   0.6332   0.03560   0.02522  -0.0863  0.7443  1.0000  -0.9433   0.0000   0.0000   0.0000   0.3824
   3.600   0.6549   0.03605   0.02568  -0.0861  0.7305  1.0000  -0.9728   0.0000   0.0000   0.0000   0.3774
   4.000   0.7129   0.03620   0.02591  -0.0870  0.7048  1.0000  -1.0517   0.0000   0.0000   0.0000   0.3676
   4.200   0.7625   0.03502   0.02480  -0.0887  0.6955  1.0000  -1.1202   0.0000   0.0000   0.0000   0.3618
   4.400   0.7713   0.03602   0.02582  -0.0872  0.6794  1.0000  -1.1397   0.0000   0.0000   0.0000   0.3582
   4.600   0.8244   0.03442   0.02438  -0.0889  0.6709  1.0000  -1.2181   0.0000   0.0000   0.0000   0.3528
   4.800   0.8317   0.03547   0.02547  -0.0871  0.6539  1.0000  -1.2404   0.0000   0.0000   0.0000   0.3495
   5.000   0.8715   0.03456   0.02462  -0.0876  0.6430  1.0000  -1.3079   0.0000   0.0000   0.0000   0.3451
   5.200   0.8926   0.03474   0.02487  -0.0867  0.6282  1.0000  -1.3548   0.0000   0.0000   0.0000   0.3415
   5.400   0.9118   0.03512   0.02531  -0.0857  0.6135  1.0000  -1.4013   0.0000   0.0000   0.0000   0.3382
   5.600   0.9539   0.03389   0.02421  -0.0861  0.6016  1.0000  -1.4914   0.0000   0.0000   0.0000   0.3342
   5.800   0.9637   0.03494   0.02534  -0.0846  0.5853  1.0000  -1.5305   0.0000   0.0000   0.0000   0.3315
   6.000   0.9967   0.03438   0.02482  -0.0844  0.5722  1.0000  -1.6141   0.0000   0.0000   0.0000   0.3281
   6.200   1.0186   0.03456   0.02506  -0.0835  0.5570  1.0000  -1.6886   0.0000   0.0000   0.0000   0.3252
   6.400   1.0329   0.03541   0.02600  -0.0822  0.5418  1.0000  -1.7469   0.0000   0.0000   0.0000   0.3227
   6.600   1.0700   0.03459   0.02514  -0.0822  0.5280  1.0000  -1.8589   0.0000   0.0000   0.0000   0.3196
   6.800   1.0803   0.03561   0.02631  -0.0806  0.5118  1.0000  -1.9094   0.0000   0.0000   0.0000   0.3172
   7.000   1.0972   0.03637   0.02714  -0.0795  0.4972  1.0000  -1.9751   0.0000   0.0000   0.0000   0.3148
   7.200   1.1333   0.03574   0.02653  -0.0795  0.4826  1.0000  -2.1063   0.0000   0.0000   0.0000   0.3122
   7.400   1.1367   0.03729   0.02829  -0.0775  0.4667  1.0000  -2.1490   0.0000   0.0000   0.0000   0.3100
   7.600   1.1561   0.03785   0.02891  -0.0765  0.4518  1.0000  -2.2369   0.0000   0.0000   0.0000   0.3077
   7.800   1.1875   0.03759   0.02857  -0.0763  0.4364  1.0000  -2.3717   0.0000   0.0000   0.0000   0.3054
   8.000   1.1896   0.03930   0.03054  -0.0742  0.4216  1.0000  -2.4184   0.0000   0.0000   0.0000   0.3034
   8.200   1.2102   0.03976   0.03102  -0.0732  0.4062  1.0000  -2.5287   0.0000   0.0000   0.0000   0.3012
   8.400   1.2397   0.03961   0.03077  -0.0728  0.3897  1.0000  -2.6990   0.0000   0.0000   0.0000   0.2991
   8.600   1.2391   0.04152   0.03298  -0.0705  0.3759  1.0000  -2.7778   0.0000   0.0000   0.0000   0.2970
   8.800   1.2591   0.04198   0.03344  -0.0694  0.3598  1.0000  -2.9845   0.0000   0.0000   0.0000   0.2950
   9.000   1.2876   0.04191   0.03332  -0.0689  0.3421  1.0000  -3.2431   0.0000   0.0000   0.0000   0.2930
   9.200   1.2844   0.04394   0.03572  -0.0664  0.3292  1.0000  -3.3078   0.0000   0.0000   0.0000   0.2909
   9.400   1.3014   0.04460   0.03638  -0.0651  0.3128  1.0000  -3.5070   0.0000   0.0000   0.0000   0.2890
   9.600   1.3243   0.04473   0.03638  -0.0642  0.2942  1.0000  -3.7536   0.0000   0.0000   0.0000   0.2870
   9.800   1.3248   0.04655   0.03848  -0.0618  0.2811  1.0000  -3.8435   0.0000   0.0000   0.0000   0.2850
  10.000   1.3359   0.04793   0.03992  -0.0602  0.2668  1.0000  -4.0055   0.0000   0.0000   0.0000   0.2831
  10.200   1.3568   0.04831   0.04014  -0.0593  0.2485  1.0000  -4.2460   0.0000   0.0000   0.0000   0.2813
  10.400   1.3508   0.05030   0.04244  -0.0564  0.2373  1.0000  -4.2982   0.0000   0.0000   0.0000   0.2792
  10.600   1.3642   0.05166   0.04377  -0.0551  0.2234  1.0000  -4.4789   0.0000   0.0000   0.0000   0.2775
  10.800   1.3587   0.05415   0.04654  -0.0526  0.2149  1.0000  -4.5232   0.0000   0.0000   0.0000   0.2755
  11.000   1.3757   0.05594   0.04825  -0.0518  0.2029  1.0000  -4.7176   0.0000   0.0000   0.0000   0.2741
  11.200   1.3572   0.05917   0.05184  -0.0487  0.1991  1.0000  -4.6754   0.0000   0.0000   0.0000   0.2721
  11.400   1.3401   0.06223   0.05514  -0.0458  0.1952  1.0000  -4.6473   0.0000   0.0000   0.0000   0.2702
  11.600   1.1408   0.08498   0.07812  -0.0493  0.2359  1.0000  -3.3452   0.0000   0.0000   0.0000   0.2795
  11.800   1.1179   0.09199   0.08512  -0.0517  0.2323  1.0000  -3.2322   0.0000   0.0000   0.0000   0.2824
  12.000   1.0892   0.10124   0.09432  -0.0557  0.2303  1.0000  -3.0518   0.0000   0.0000   0.0000   0.2872
  12.200   1.0585   0.11170   0.10470  -0.0607  0.2294  1.0000  -2.8357   0.0000   0.0000   0.0000   0.2933
  12.400   1.0290   0.12180   0.11462  -0.0657  0.2294  1.0000  -2.6254   0.0000   0.0000   0.0000   0.2999
  12.600   1.0033   0.13092   0.12366  -0.0705  0.2300  1.0000  -2.4344   0.0000   0.0000   0.0000   0.3063
  12.800   0.9823   0.13892   0.13160  -0.0748  0.2309  1.0000  -2.2793   0.0000   0.0000   0.0000   0.3121
  13.000   0.9668   0.14587   0.13852  -0.0785  0.2319  1.0000  -2.1658   0.0000   0.0000   0.0000   0.3171
  13.200   0.9661   0.15088   0.14357  -0.0803  0.2311  1.0000  -2.1660   0.0000   0.0000   0.0000   0.3188
  13.400   0.9770   0.15511   0.14790  -0.0806  0.2293  1.0000  -2.2522   0.0000   0.0000   0.0000   0.3179
  14.400   0.9478   0.19217   0.18501  -0.0994  0.2958  1.0000  -1.8775   0.0000   0.0000   0.0000   0.3399
  14.600   0.9241   0.19087   0.18363  -0.1022  0.2930  1.0000  -1.7624   0.0000   0.0000   0.0000   0.3453
  14.800   0.9206   0.19217   0.18494  -0.1038  0.2835  1.0000  -1.7584   0.0000   0.0000   0.0000   0.3471
  15.000   0.9532   0.20033   0.19327  -0.1023  0.2725  1.0000  -1.9622   0.0000   0.0000   0.0000   0.3415


