xflr5 v6.61

 Calculated polar for: SD7032-099-88

 1 1 Reynolds number fixed          Mach number fixed         

 xtrf =   1.000 (top)        1.000 (bottom)
 Mach =   0.000     Re =     0.200 e 6     Ncrit =   9.000

  alpha     CL        CD       CDp       Cm    Top Xtr Bot Xtr   Cpmin    Chinge    XCp    
 ------- -------- --------- --------- -------- ------- ------- -------- --------- ---------
 -10.000  -0.3155   0.11251   0.10886  -0.0369  1.0000  0.0325  -1.6693   0.0000   0.0000   0.0000   0.1236
  -9.800  -0.3143   0.11074   0.10714  -0.0381  1.0000  0.0330  -1.7125   0.0000   0.0000   0.0000   0.1196
  -9.600  -0.3127   0.10879   0.10521  -0.0389  1.0000  0.0332  -1.7441   0.0000   0.0000   0.0000   0.1167
  -9.400  -0.3118   0.10669   0.10316  -0.0395  1.0000  0.0333  -1.7762   0.0000   0.0000   0.0000   0.1146
  -9.200  -0.3117   0.10454   0.10105  -0.0399  1.0000  0.0334  -1.8094   0.0000   0.0000   0.0000   0.1133
  -9.000  -0.3126   0.10241   0.09896  -0.0402  1.0000  0.0335  -1.8440   0.0000   0.0000   0.0000   0.1132
  -8.800  -0.3149   0.10035   0.09695  -0.0401  1.0000  0.0335  -1.8798   0.0000   0.0000   0.0000   0.1145
  -8.600  -0.3188   0.09842   0.09507  -0.0397  1.0000  0.0336  -1.9168   0.0000   0.0000   0.0000   0.1176
  -8.400  -0.3302   0.09487   0.09162  -0.0392  1.0000  0.0339  -2.0175   0.0000   0.0000   0.0000   0.1242
  -8.200  -0.3441   0.09091   0.08772  -0.0377  1.0000  0.0347  -2.0955   0.0000   0.0000   0.0000   0.1336
  -8.000  -0.3472   0.08896   0.08581  -0.0353  1.0000  0.0355  -2.0529   0.0000   0.0000   0.0000   0.1418
  -7.800  -0.3520   0.08763   0.08452  -0.0330  1.0000  0.0361  -2.0215   0.0000   0.0000   0.0000   0.1502
  -7.600  -0.3587   0.08648   0.08342  -0.0306  1.0000  0.0366  -2.0030   0.0000   0.0000   0.0000   0.1588
  -7.400  -0.3691   0.08545   0.08244  -0.0282  1.0000  0.0370  -2.0068   0.0000   0.0000   0.0000   0.1681
  -7.200  -0.3827   0.08453   0.08159  -0.0256  1.0000  0.0372  -2.0260   0.0000   0.0000   0.0000   0.1779
  -7.000  -0.3973   0.08357   0.08068  -0.0233  1.0000  0.0374  -2.0518   0.0000   0.0000   0.0000   0.1867
  -6.800  -0.3967   0.08156   0.07870  -0.0238  0.9988  0.0383  -2.0362   0.0000   0.0000   0.0000   0.1853
  -6.600  -0.3766   0.07779   0.07492  -0.0298  0.9943  0.0404  -2.0065   0.0000   0.0000   0.0000   0.1663
  -6.400  -0.3535   0.07311   0.07022  -0.0383  0.9896  0.0430  -2.0179   0.0000   0.0000   0.0000   0.1369
  -6.200  -0.3295   0.06768   0.06471  -0.0498  0.9822  0.0475  -2.1092   0.0000   0.0000   0.0000   0.0942
  -5.600  -0.2640   0.05275   0.04948  -0.0700  0.9681  0.0563  -2.1432   0.0000   0.0000   0.0000  -0.0207
  -5.400  -0.2459   0.05012   0.04678  -0.0722  0.9617  0.0590  -2.0733   0.0000   0.0000   0.0000  -0.0495
  -5.200  -0.2191   0.04657   0.04305  -0.0769  0.9570  0.0635  -2.0332   0.0000   0.0000   0.0000  -0.1071
  -5.000  -0.1751   0.04632   0.04215  -0.0824  0.9530  0.0710  -2.0025   0.0000   0.0000   0.0000  -0.2285
  -4.800  -0.1571   0.03786   0.03360  -0.0877  0.9506  0.0753  -2.0133   0.0000   0.0000   0.0000  -0.3169
  -4.400  -0.1067   0.02576   0.01991  -0.0893  0.9397  0.0354  -2.5185   0.0000   0.0000   0.0000  -0.6004
  -4.200  -0.0764   0.02459   0.01848  -0.0905  0.9356  0.0342  -2.4227   0.0000   0.0000   0.0000  -0.9530
  -4.000  -0.0450   0.02225   0.01578  -0.0923  0.9327  0.0342  -2.4325   0.0000   0.0000   0.0000  -1.8313
  -3.800  -0.0130   0.01928   0.01244  -0.0942  0.9306  0.0362  -2.4767   0.0000   0.0000   0.0000  -7.1262
  -3.600   0.0212   0.01839   0.01153  -0.0967  0.9286  0.0423  -2.3245   0.0000   0.0000   0.0000   4.8627
  -3.400   0.0556   0.01755   0.01057  -0.0987  0.9266  0.0476  -2.2064   0.0000   0.0000   0.0000   2.0458
  -3.200   0.0728   0.01698   0.00990  -0.0974  0.9179  0.0497  -2.1264   0.0000   0.0000   0.0000   1.6016
  -3.000   0.0984   0.01565   0.00850  -0.0978  0.9128  0.0549  -2.0367   0.0000   0.0000   0.0000   1.2548
  -2.800   0.1279   0.01498   0.00783  -0.0990  0.9087  0.0631  -1.8755   0.0000   0.0000   0.0000   1.0314
  -2.600   0.1582   0.01435   0.00712  -0.1001  0.9053  0.0707  -1.7282   0.0000   0.0000   0.0000   0.8882
  -2.400   0.1857   0.01326   0.00626  -0.1010  0.9014  0.1252  -1.6149   0.0000   0.0000   0.0000   0.7980
  -2.000   0.2251   0.01168   0.00589  -0.1004  0.8859  0.4438  -1.3274   0.0000   0.0000   0.0000   0.6987
  -1.800   0.2487   0.01109   0.00575  -0.1002  0.8813  0.5822  -1.1607   0.0000   0.0000   0.0000   0.6548
  -1.600   0.2670   0.01081   0.00569  -0.0988  0.8736  0.6681  -1.0146   0.0000   0.0000   0.0000   0.6217
  -1.400   0.2829   0.01052   0.00565  -0.0967  0.8653  0.7553  -0.8827   0.0000   0.0000   0.0000   0.5929
  -1.200   0.2997   0.01021   0.00549  -0.0943  0.8591  0.8336  -0.7764   0.0000   0.0000   0.0000   0.5655
  -1.000   0.3161   0.01000   0.00534  -0.0920  0.8518  0.8956  -0.6864   0.0000   0.0000   0.0000   0.5415
  -0.800   0.3492   0.00975   0.00507  -0.0935  0.8437  0.9615  -0.6062   0.0000   0.0000   0.0000   0.5178
  -0.600   0.3843   0.00955   0.00473  -0.0958  0.8368  1.0000  -0.6335   0.0000   0.0000   0.0000   0.4990
  -0.400   0.4057   0.00950   0.00455  -0.0955  0.8281  1.0000  -0.6543   0.0000   0.0000   0.0000   0.4848
  -0.200   0.4264   0.00947   0.00441  -0.0950  0.8176  1.0000  -0.6748   0.0000   0.0000   0.0000   0.4721
   0.000   0.4496   0.00939   0.00419  -0.0948  0.8098  1.0000  -0.6973   0.0000   0.0000   0.0000   0.4599
   0.200   0.4698   0.00941   0.00414  -0.0943  0.7978  1.0000  -0.7175   0.0000   0.0000   0.0000   0.4496
   0.400   0.4923   0.00937   0.00397  -0.0941  0.7883  1.0000  -0.7410   0.0000   0.0000   0.0000   0.4396
   0.600   0.5133   0.00939   0.00393  -0.0937  0.7765  1.0000  -0.7639   0.0000   0.0000   0.0000   0.4308
   0.800   0.5355   0.00939   0.00380  -0.0934  0.7658  1.0000  -0.7896   0.0000   0.0000   0.0000   0.4225
   1.000   0.5567   0.00943   0.00377  -0.0930  0.7535  1.0000  -0.8151   0.0000   0.0000   0.0000   0.4150
   1.200   0.5787   0.00946   0.00368  -0.0927  0.7420  1.0000  -0.8420   0.0000   0.0000   0.0000   0.4079
   1.400   0.5999   0.00953   0.00369  -0.0923  0.7290  1.0000  -0.8703   0.0000   0.0000   0.0000   0.4015
   1.600   0.6219   0.00959   0.00363  -0.0920  0.7173  1.0000  -0.8997   0.0000   0.0000   0.0000   0.3953
   1.800   0.6428   0.00968   0.00367  -0.0917  0.7030  1.0000  -0.9280   0.0000   0.0000   0.0000   0.3898
   2.000   0.6645   0.00978   0.00365  -0.0913  0.6905  1.0000  -0.9574   0.0000   0.0000   0.0000   0.3844
   2.200   0.6855   0.00988   0.00371  -0.0910  0.6760  1.0000  -0.9889   0.0000   0.0000   0.0000   0.3795
   2.400   0.7067   0.01000   0.00375  -0.0906  0.6623  1.0000  -1.0214   0.0000   0.0000   0.0000   0.3749
   2.600   0.7278   0.01014   0.00377  -0.0903  0.6481  1.0000  -1.0542   0.0000   0.0000   0.0000   0.3704
   2.800   0.7485   0.01027   0.00386  -0.0899  0.6327  1.0000  -1.0866   0.0000   0.0000   0.0000   0.3663
   3.000   0.7694   0.01043   0.00392  -0.0895  0.6185  1.0000  -1.1195   0.0000   0.0000   0.0000   0.3623
   3.200   0.7900   0.01059   0.00401  -0.0891  0.6034  1.0000  -1.1523   0.0000   0.0000   0.0000   0.3586
   3.400   0.8106   0.01076   0.00412  -0.0887  0.5883  1.0000  -1.1882   0.0000   0.0000   0.0000   0.3551
   3.600   0.8311   0.01096   0.00426  -0.0883  0.5739  1.0000  -1.2255   0.0000   0.0000   0.0000   0.3517
   3.800   0.8514   0.01114   0.00439  -0.0879  0.5583  1.0000  -1.2627   0.0000   0.0000   0.0000   0.3484
   4.000   0.8718   0.01134   0.00454  -0.0875  0.5440  1.0000  -1.3003   0.0000   0.0000   0.0000   0.3454
   4.200   0.8920   0.01158   0.00468  -0.0871  0.5299  1.0000  -1.3422   0.0000   0.0000   0.0000   0.3424
   4.400   0.9120   0.01177   0.00486  -0.0866  0.5143  1.0000  -1.3852   0.0000   0.0000   0.0000   0.3396
   4.600   0.9319   0.01201   0.00503  -0.0862  0.4999  1.0000  -1.4293   0.0000   0.0000   0.0000   0.3369
   4.800   0.9516   0.01226   0.00521  -0.0857  0.4854  1.0000  -1.4798   0.0000   0.0000   0.0000   0.3342
   5.000   0.9716   0.01249   0.00548  -0.0853  0.4714  1.0000  -1.5308   0.0000   0.0000   0.0000   0.3318
   5.200   0.9910   0.01279   0.00569  -0.0848  0.4580  1.0000  -1.5896   0.0000   0.0000   0.0000   0.3293
   5.400   1.0105   0.01301   0.00593  -0.0843  0.4431  1.0000  -1.6504   0.0000   0.0000   0.0000   0.3269
   5.600   1.0297   0.01330   0.00618  -0.0838  0.4291  1.0000  -1.7218   0.0000   0.0000   0.0000   0.3247
   5.800   1.0486   0.01360   0.00642  -0.0833  0.4152  1.0000  -1.7945   0.0000   0.0000   0.0000   0.3224
   6.000   1.0678   0.01387   0.00671  -0.0828  0.4015  1.0000  -1.8683   0.0000   0.0000   0.0000   0.3203
   6.200   1.0861   0.01424   0.00698  -0.0822  0.3880  1.0000  -1.9418   0.0000   0.0000   0.0000   0.3182
   6.400   1.1049   0.01449   0.00727  -0.0816  0.3736  1.0000  -2.0165   0.0000   0.0000   0.0000   0.3161
   6.600   1.1231   0.01484   0.00763  -0.0810  0.3603  1.0000  -2.0952   0.0000   0.0000   0.0000   0.3141
   6.800   1.1409   0.01518   0.00794  -0.0803  0.3464  1.0000  -2.1834   0.0000   0.0000   0.0000   0.3121
   7.000   1.1589   0.01550   0.00829  -0.0796  0.3327  1.0000  -2.2730   0.0000   0.0000   0.0000   0.3102
   7.400   1.1935   0.01623   0.00899  -0.0781  0.3056  1.0000  -2.4680   0.0000   0.0000   0.0000   0.3065
   7.600   1.2099   0.01666   0.00938  -0.0773  0.2923  1.0000  -2.5715   0.0000   0.0000   0.0000   0.3046
   7.800   1.2264   0.01703   0.00975  -0.0765  0.2786  1.0000  -2.6765   0.0000   0.0000   0.0000   0.3028
   8.000   1.2428   0.01743   0.01018  -0.0756  0.2655  1.0000  -2.8605   0.0000   0.0000   0.0000   0.3010
   8.200   1.2576   0.01792   0.01060  -0.0746  0.2525  1.0000  -3.0502   0.0000   0.0000   0.0000   0.2992
   8.400   1.2741   0.01829   0.01111  -0.0737  0.2403  1.0000  -3.2443   0.0000   0.0000   0.0000   0.2975
   8.600   1.2878   0.01887   0.01161  -0.0725  0.2287  1.0000  -3.4336   0.0000   0.0000   0.0000   0.2956
   8.800   1.3038   0.01924   0.01209  -0.0716  0.2169  1.0000  -3.6397   0.0000   0.0000   0.0000   0.2940
   9.000   1.3159   0.01988   0.01264  -0.0703  0.2049  1.0000  -3.8295   0.0000   0.0000   0.0000   0.2921
   9.200   1.3305   0.02027   0.01313  -0.0692  0.1922  1.0000  -4.0366   0.0000   0.0000   0.0000   0.2904
   9.400   1.3416   0.02091   0.01373  -0.0677  0.1801  1.0000  -4.2273   0.0000   0.0000   0.0000   0.2886
   9.600   1.3533   0.02145   0.01431  -0.0662  0.1676  1.0000  -4.4238   0.0000   0.0000   0.0000   0.2868
   9.800   1.3624   0.02212   0.01499  -0.0644  0.1561  1.0000  -4.6060   0.0000   0.0000   0.0000   0.2848
  10.000   1.3693   0.02281   0.01566  -0.0622  0.1442  1.0000  -4.7783   0.0000   0.0000   0.0000   0.2827
  10.200   1.3769   0.02354   0.01643  -0.0602  0.1324  1.0000  -4.9541   0.0000   0.0000   0.0000   0.2807
  10.400   1.3805   0.02449   0.01730  -0.0579  0.1211  1.0000  -5.1072   0.0000   0.0000   0.0000   0.2786
  10.600   1.3880   0.02530   0.01818  -0.0561  0.1106  1.0000  -5.2831   0.0000   0.0000   0.0000   0.2767
  10.800   1.3902   0.02642   0.01929  -0.0538  0.1015  1.0000  -5.4297   0.0000   0.0000   0.0000   0.2747
  11.000   1.3951   0.02752   0.02046  -0.0518  0.0939  1.0000  -5.5866   0.0000   0.0000   0.0000   0.2729
  11.200   1.4002   0.02855   0.02154  -0.0501  0.0871  1.0000  -5.7501   0.0000   0.0000   0.0000   0.2711
  11.400   1.3993   0.03010   0.02304  -0.0479  0.0808  1.0000  -5.8690   0.0000   0.0000   0.0000   0.2693
  11.600   1.4038   0.03138   0.02441  -0.0463  0.0761  1.0000  -6.0221   0.0000   0.0000   0.0000   0.2677
  11.800   1.4093   0.03250   0.02565  -0.0449  0.0714  1.0000  -6.1887   0.0000   0.0000   0.0000   0.2662
  12.000   1.4122   0.03386   0.02708  -0.0435  0.0673  1.0000  -6.3375   0.0000   0.0000   0.0000   0.2648
  12.200   1.4110   0.03571   0.02893  -0.0419  0.0634  1.0000  -6.4501   0.0000   0.0000   0.0000   0.2633
  12.400   1.4105   0.03789   0.03115  -0.0403  0.0597  1.0000  -6.5511   0.0000   0.0000   0.0000   0.2619
  12.600   1.4151   0.03919   0.03263  -0.0393  0.0573  1.0000  -6.7101   0.0000   0.0000   0.0000   0.2608
  12.800   1.4182   0.04067   0.03423  -0.0385  0.0539  1.0000  -6.8610   0.0000   0.0000   0.0000   0.2598
  13.000   1.4195   0.04230   0.03594  -0.0378  0.0504  1.0000  -7.0080   0.0000   0.0000   0.0000   0.2589
  13.200   1.4167   0.04447   0.03812  -0.0372  0.0471  1.0000  -7.1198   0.0000   0.0000   0.0000   0.2581
  13.400   1.4102   0.04752   0.04119  -0.0363  0.0433  1.0000  -7.1681   0.0000   0.0000   0.0000   0.2572
  13.600   1.4130   0.04917   0.04301  -0.0362  0.0415  1.0000  -7.3233   0.0000   0.0000   0.0000   0.2567
  13.800   1.4139   0.05121   0.04519  -0.0362  0.0390  1.0000  -7.4540   0.0000   0.0000   0.0000   0.2563
  14.000   1.4132   0.05352   0.04760  -0.0363  0.0364  1.0000  -7.5727   0.0000   0.0000   0.0000   0.2560
  14.200   1.4104   0.05618   0.05034  -0.0367  0.0341  1.0000  -7.6736   0.0000   0.0000   0.0000   0.2559
  14.400   1.4032   0.05953   0.05373  -0.0372  0.0319  1.0000  -7.7239   0.0000   0.0000   0.0000   0.2560
  14.600   1.3900   0.06393   0.05818  -0.0373  0.0293  1.0000  -7.6732   0.0000   0.0000   0.0000   0.2559
  14.800   1.3888   0.06678   0.06121  -0.0383  0.0281  1.0000  -7.7603   0.0000   0.0000   0.0000   0.2562
  15.000   1.3850   0.07016   0.06476  -0.0393  0.0263  1.0000  -7.8060   0.0000   0.0000   0.0000   0.2566


