xflr5 v6.61

 Calculated polar for: SD7032-099-88

 1 1 Reynolds number fixed          Mach number fixed         

 xtrf =   1.000 (top)        1.000 (bottom)
 Mach =   0.000     Re =     0.100 e 6     Ncrit =   9.000

  alpha     CL        CD       CDp       Cm    Top Xtr Bot Xtr   Cpmin    Chinge    XCp    
 ------- -------- --------- --------- -------- ------- ------- -------- --------- ---------
 -10.000  -0.3370   0.12181   0.11679  -0.0386  1.0000  0.0705  -1.6535   0.0000   0.0000   0.0000   0.1272
  -9.800  -0.3408   0.12066   0.11571  -0.0400  1.0000  0.0708  -1.7046   0.0000   0.0000   0.0000   0.1249
  -9.600  -0.3432   0.11921   0.11433  -0.0409  1.0000  0.0710  -1.7442   0.0000   0.0000   0.0000   0.1233
  -9.400  -0.3145   0.10891   0.10398  -0.0355  1.0000  0.0760  -1.5618   0.0000   0.0000   0.0000   0.1287
  -9.200  -0.3091   0.10657   0.10167  -0.0348  1.0000  0.0782  -1.5358   0.0000   0.0000   0.0000   0.1289
  -9.000  -0.3065   0.10447   0.09961  -0.0346  1.0000  0.0804  -1.5286   0.0000   0.0000   0.0000   0.1290
  -8.800  -0.3057   0.10246   0.09765  -0.0345  1.0000  0.0827  -1.5325   0.0000   0.0000   0.0000   0.1292
  -8.600  -0.3066   0.10058   0.09583  -0.0345  1.0000  0.0850  -1.5455   0.0000   0.0000   0.0000   0.1298
  -8.400  -0.3099   0.09892   0.09423  -0.0345  1.0000  0.0872  -1.5697   0.0000   0.0000   0.0000   0.1312
  -8.200  -0.3174   0.09772   0.09312  -0.0347  1.0000  0.0894  -1.6118   0.0000   0.0000   0.0000   0.1337
  -8.000  -0.3309   0.09725   0.09275  -0.0347  1.0000  0.0909  -1.6733   0.0000   0.0000   0.0000   0.1388
  -7.800  -0.3480   0.09709   0.09270  -0.0338  1.0000  0.0916  -1.7344   0.0000   0.0000   0.0000   0.1471
  -7.600  -0.3664   0.09685   0.09256  -0.0322  1.0000  0.0920  -1.7871   0.0000   0.0000   0.0000   0.1570
  -7.400  -0.3817   0.09611   0.09191  -0.0324  1.0000  0.0924  -1.8474   0.0000   0.0000   0.0000   0.1603
  -7.200  -0.3940   0.09482   0.09068  -0.0342  1.0000  0.0927  -1.9160   0.0000   0.0000   0.0000   0.1589
  -7.000  -0.4028   0.09326   0.08912  -0.0358  1.0000  0.0929  -1.9791   0.0000   0.0000   0.0000   0.1570
  -6.800  -0.4083   0.09151   0.08736  -0.0369  1.0000  0.0932  -2.0282   0.0000   0.0000   0.0000   0.1559
  -6.600  -0.4046   0.08499   0.08103  -0.0293  1.0000  0.0957  -1.9170   0.0000   0.0000   0.0000   0.1736
  -6.400  -0.4005   0.08310   0.07918  -0.0249  1.0000  0.0978  -1.8364   0.0000   0.0000   0.0000   0.1839
  -6.200  -0.4011   0.08140   0.07752  -0.0228  1.0000  0.0998  -1.8015   0.0000   0.0000   0.0000   0.1894
  -6.000  -0.4035   0.07963   0.07578  -0.0218  1.0000  0.1019  -1.7879   0.0000   0.0000   0.0000   0.1924
  -5.800  -0.4062   0.07769   0.07388  -0.0217  1.0000  0.1044  -1.7876   0.0000   0.0000   0.0000   0.1932
  -5.600  -0.4081   0.07550   0.07170  -0.0227  1.0000  0.1075  -1.8003   0.0000   0.0000   0.0000   0.1912
  -5.400  -0.4031   0.07424   0.07001  -0.0366  1.0000  0.1158  -2.0046   0.0000   0.0000   0.0000   0.1562
  -5.200  -0.4043   0.06837   0.06430  -0.0357  1.0000  0.1177  -1.9919   0.0000   0.0000   0.0000   0.1589
  -5.000  -0.4017   0.06586   0.06191  -0.0327  1.0000  0.1195  -1.9195   0.0000   0.0000   0.0000   0.1659
  -4.800  -0.3977   0.06403   0.06015  -0.0305  1.0000  0.1219  -1.8569   0.0000   0.0000   0.0000   0.1706
  -4.600  -0.3834   0.06178   0.05789  -0.0313  0.9980  0.1268  -1.7940   0.0000   0.0000   0.0000   0.1656
  -4.400  -0.3457   0.05665   0.05241  -0.0423  0.9920  0.1431  -1.7986   0.0000   0.0000   0.0000   0.1247
  -4.200  -0.3228   0.05422   0.05003  -0.0433  0.9868  0.1489  -1.6949   0.0000   0.0000   0.0000   0.1128
  -4.000  -0.2907   0.05059   0.04617  -0.0498  0.9802  0.1676  -1.6486   0.0000   0.0000   0.0000   0.0755
  -3.800  -0.2268   0.03755   0.03143  -0.0605  0.9785  0.0686  -2.1751   0.0000   0.0000   0.0000  -0.0219
  -3.600  -0.1923   0.03333   0.02677  -0.0641  0.9748  0.0640  -2.2021   0.0000   0.0000   0.0000  -0.0893
  -3.400  -0.1536   0.03131   0.02422  -0.0674  0.9708  0.0677  -2.2049   0.0000   0.0000   0.0000  -0.1960
  -3.200  -0.1265   0.02998   0.02246  -0.0682  0.9632  0.0701  -2.1963   0.0000   0.0000   0.0000  -0.2980
  -3.000  -0.0933   0.02791   0.01994  -0.0701  0.9576  0.0705  -2.1967   0.0000   0.0000   0.0000  -0.5124
  -2.800  -0.0580   0.02558   0.01724  -0.0724  0.9533  0.0729  -2.1828   0.0000   0.0000   0.0000  -1.0143
  -2.600  -0.0201   0.02441   0.01606  -0.0755  0.9494  0.0841  -2.0544   0.0000   0.0000   0.0000  -3.5477
  -2.400   0.0017   0.02365   0.01516  -0.0752  0.9402  0.0899  -1.9799   0.0000   0.0000   0.0000  44.0340
  -2.200   0.0330   0.02246   0.01390  -0.0766  0.9338  0.0977  -1.8886   0.0000   0.0000   0.0000   2.5962
  -2.000   0.0696   0.02161   0.01309  -0.0790  0.9288  0.1180  -1.7601   0.0000   0.0000   0.0000   1.3943
  -1.800   0.1023   0.01971   0.01237  -0.0813  0.9243  0.3199  -1.6652   0.0000   0.0000   0.0000   1.0513
  -1.600   0.1159   0.01878   0.01249  -0.0795  0.9142  0.5881  -1.5501   0.0000   0.0000   0.0000   0.9408
  -1.400   0.1349   0.01825   0.01262  -0.0769  0.9076  0.8045  -1.3997   0.0000   0.0000   0.0000   0.8241
  -1.200   0.1896   0.01786   0.01219  -0.0820  0.9041  1.0000  -1.1271   0.0000   0.0000   0.0000   0.6844
  -1.000   0.2106   0.01796   0.01204  -0.0820  0.8931  1.0000  -0.9805   0.0000   0.0000   0.0000   0.6407
  -0.800   0.2463   0.01793   0.01177  -0.0844  0.8858  1.0000  -0.8180   0.0000   0.0000   0.0000   0.5936
  -0.600   0.2902   0.01779   0.01142  -0.0882  0.8812  1.0000  -0.6631   0.0000   0.0000   0.0000   0.5541
  -0.400   0.3118   0.01788   0.01137  -0.0881  0.8704  1.0000  -0.5806   0.0000   0.0000   0.0000   0.5324
  -0.200   0.3461   0.01775   0.01109  -0.0900  0.8629  1.0000  -0.6087   0.0000   0.0000   0.0000   0.5097
   0.000   0.3856   0.01749   0.01067  -0.0926  0.8580  1.0000  -0.6409   0.0000   0.0000   0.0000   0.4895
   0.400   0.4375   0.01734   0.01032  -0.0934  0.8389  1.0000  -0.6882   0.0000   0.0000   0.0000   0.4621
   0.600   0.4738   0.01699   0.00987  -0.0951  0.8338  1.0000  -0.7217   0.0000   0.0000   0.0000   0.4493
   0.800   0.4912   0.01709   0.00991  -0.0941  0.8208  1.0000  -0.7417   0.0000   0.0000   0.0000   0.4399
   1.000   0.5223   0.01677   0.00951  -0.0949  0.8135  1.0000  -0.7745   0.0000   0.0000   0.0000   0.4299
   1.200   0.5475   0.01665   0.00932  -0.0949  0.8040  1.0000  -0.8028   0.0000   0.0000   0.0000   0.4213
   1.400   0.5712   0.01653   0.00914  -0.0947  0.7931  1.0000  -0.8317   0.0000   0.0000   0.0000   0.4135
   1.600   0.6024   0.01615   0.00868  -0.0953  0.7865  1.0000  -0.8686   0.0000   0.0000   0.0000   0.4058
   1.800   0.6198   0.01626   0.00876  -0.0942  0.7719  1.0000  -0.8936   0.0000   0.0000   0.0000   0.3994
   2.000   0.6486   0.01594   0.00836  -0.0945  0.7639  1.0000  -0.9292   0.0000   0.0000   0.0000   0.3928
   2.200   0.6672   0.01604   0.00844  -0.0936  0.7495  1.0000  -0.9562   0.0000   0.0000   0.0000   0.3872
   2.400   0.6947   0.01579   0.00811  -0.0936  0.7403  1.0000  -0.9947   0.0000   0.0000   0.0000   0.3816
   2.600   0.7132   0.01591   0.00822  -0.0927  0.7252  1.0000  -1.0243   0.0000   0.0000   0.0000   0.3766
   2.800   0.7385   0.01579   0.00800  -0.0926  0.7144  1.0000  -1.0611   0.0000   0.0000   0.0000   0.3717
   3.000   0.7585   0.01587   0.00806  -0.0918  0.6993  1.0000  -1.0926   0.0000   0.0000   0.0000   0.3673
   3.200   0.7802   0.01593   0.00806  -0.0913  0.6858  1.0000  -1.1261   0.0000   0.0000   0.0000   0.3630
   3.400   0.8031   0.01593   0.00798  -0.0909  0.6723  1.0000  -1.1635   0.0000   0.0000   0.0000   0.3590
   3.600   0.8227   0.01609   0.00812  -0.0901  0.6565  1.0000  -1.1993   0.0000   0.0000   0.0000   0.3552
   3.800   0.8451   0.01617   0.00816  -0.0897  0.6428  1.0000  -1.2386   0.0000   0.0000   0.0000   0.3515
   4.000   0.8656   0.01632   0.00826  -0.0890  0.6272  1.0000  -1.2759   0.0000   0.0000   0.0000   0.3481
   4.200   0.8854   0.01653   0.00844  -0.0884  0.6115  1.0000  -1.3161   0.0000   0.0000   0.0000   0.3448
   4.400   0.9074   0.01669   0.00848  -0.0879  0.5975  1.0000  -1.3614   0.0000   0.0000   0.0000   0.3417
   4.600   0.9267   0.01691   0.00870  -0.0872  0.5812  1.0000  -1.4033   0.0000   0.0000   0.0000   0.3387
   4.800   0.9464   0.01718   0.00894  -0.0866  0.5657  1.0000  -1.4523   0.0000   0.0000   0.0000   0.3358
   5.000   0.9679   0.01742   0.00906  -0.0861  0.5517  1.0000  -1.5056   0.0000   0.0000   0.0000   0.3331
   5.200   0.9864   0.01771   0.00945  -0.0854  0.5354  1.0000  -1.5598   0.0000   0.0000   0.0000   0.3305
   5.400   1.0058   0.01803   0.00974  -0.0847  0.5201  1.0000  -1.6197   0.0000   0.0000   0.0000   0.3279
   5.600   1.0268   0.01833   0.00991  -0.0843  0.5060  1.0000  -1.6880   0.0000   0.0000   0.0000   0.3255
   5.800   1.0445   0.01867   0.01032  -0.0834  0.4898  1.0000  -1.7564   0.0000   0.0000   0.0000   0.3231
   6.000   1.0638   0.01906   0.01068  -0.0828  0.4756  1.0000  -1.8293   0.0000   0.0000   0.0000   0.3208
   6.200   1.0835   0.01940   0.01096  -0.0822  0.4610  1.0000  -1.9045   0.0000   0.0000   0.0000   0.3186
   6.400   1.1010   0.01980   0.01141  -0.0814  0.4452  1.0000  -1.9751   0.0000   0.0000   0.0000   0.3164
   6.600   1.1200   0.02023   0.01185  -0.0808  0.4310  1.0000  -2.0503   0.0000   0.0000   0.0000   0.3143
   6.800   1.1382   0.02061   0.01223  -0.0800  0.4162  1.0000  -2.1374   0.0000   0.0000   0.0000   0.3123
   7.000   1.1555   0.02108   0.01275  -0.0792  0.4011  1.0000  -2.2228   0.0000   0.0000   0.0000   0.3102
   7.200   1.1743   0.02155   0.01312  -0.0786  0.3871  1.0000  -2.3147   0.0000   0.0000   0.0000   0.3083
   7.400   1.1905   0.02196   0.01361  -0.0776  0.3718  1.0000  -2.4081   0.0000   0.0000   0.0000   0.3063
   7.600   1.2073   0.02249   0.01417  -0.0767  0.3574  1.0000  -2.5095   0.0000   0.0000   0.0000   0.3044
   7.800   1.2253   0.02300   0.01455  -0.0760  0.3433  1.0000  -2.6177   0.0000   0.0000   0.0000   0.3026
   8.000   1.2397   0.02347   0.01517  -0.0748  0.3283  1.0000  -2.7415   0.0000   0.0000   0.0000   0.3007
   8.200   1.2561   0.02406   0.01573  -0.0739  0.3146  1.0000  -2.9326   0.0000   0.0000   0.0000   0.2989
   8.400   1.2710   0.02453   0.01622  -0.0727  0.3002  1.0000  -3.1211   0.0000   0.0000   0.0000   0.2970
   8.600   1.2850   0.02513   0.01697  -0.0715  0.2859  1.0000  -3.2975   0.0000   0.0000   0.0000   0.2952
   8.800   1.3007   0.02578   0.01750  -0.0706  0.2724  1.0000  -3.4982   0.0000   0.0000   0.0000   0.2935
   9.000   1.3120   0.02629   0.01818  -0.0690  0.2581  1.0000  -3.6747   0.0000   0.0000   0.0000   0.2915
   9.200   1.3245   0.02698   0.01888  -0.0677  0.2443  1.0000  -3.8630   0.0000   0.0000   0.0000   0.2897
   9.400   1.3361   0.02760   0.01947  -0.0662  0.2305  1.0000  -4.0507   0.0000   0.0000   0.0000   0.2878
   9.600   1.3464   0.02840   0.02040  -0.0646  0.2167  1.0000  -4.2259   0.0000   0.0000   0.0000   0.2859
   9.800   1.3578   0.02933   0.02123  -0.0632  0.2034  1.0000  -4.4140   0.0000   0.0000   0.0000   0.2842
  10.000   1.3647   0.03007   0.02211  -0.0611  0.1899  1.0000  -4.5736   0.0000   0.0000   0.0000   0.2821
  10.200   1.3724   0.03113   0.02317  -0.0593  0.1767  1.0000  -4.7380   0.0000   0.0000   0.0000   0.2802
  10.400   1.3779   0.03202   0.02401  -0.0572  0.1644  1.0000  -4.8968   0.0000   0.0000   0.0000   0.2782
  10.600   1.3826   0.03318   0.02528  -0.0550  0.1526  1.0000  -5.0387   0.0000   0.0000   0.0000   0.2762
  10.800   1.3875   0.03429   0.02632  -0.0529  0.1427  1.0000  -5.1906   0.0000   0.0000   0.0000   0.2742
  11.000   1.3933   0.03578   0.02802  -0.0509  0.1332  1.0000  -5.3339   0.0000   0.0000   0.0000   0.2724
  11.200   1.3962   0.03689   0.02917  -0.0487  0.1251  1.0000  -5.4709   0.0000   0.0000   0.0000   0.2704
  11.400   1.4044   0.03866   0.03089  -0.0474  0.1166  1.0000  -5.6340   0.0000   0.0000   0.0000   0.2690
  11.600   1.4038   0.03989   0.03234  -0.0450  0.1105  1.0000  -5.7413   0.0000   0.0000   0.0000   0.2669
  11.800   1.4063   0.04116   0.03365  -0.0431  0.1045  1.0000  -5.8759   0.0000   0.0000   0.0000   0.2652
  12.000   1.4205   0.04364   0.03606  -0.0427  0.0973  1.0000  -6.0601   0.0000   0.0000   0.0000   0.2643
  12.200   1.4190   0.04525   0.03797  -0.0406  0.0938  1.0000  -6.1470   0.0000   0.0000   0.0000   0.2625
  12.400   1.4181   0.04695   0.03986  -0.0388  0.0895  1.0000  -6.2425   0.0000   0.0000   0.0000   0.2609
  12.600   1.4181   0.04848   0.04145  -0.0373  0.0851  1.0000  -6.3587   0.0000   0.0000   0.0000   0.2595
  12.800   1.4274   0.05165   0.04453  -0.0369  0.0786  1.0000  -6.5080   0.0000   0.0000   0.0000   0.2588
  13.000   1.4213   0.05367   0.04684  -0.0352  0.0769  1.0000  -6.5567   0.0000   0.0000   0.0000   0.2573
  13.200   1.4155   0.05614   0.04958  -0.0338  0.0748  1.0000  -6.5962   0.0000   0.0000   0.0000   0.2561
  13.400   1.4087   0.05885   0.05252  -0.0327  0.0726  1.0000  -6.6267   0.0000   0.0000   0.0000   0.2551
  13.600   1.4006   0.06165   0.05553  -0.0319  0.0703  1.0000  -6.6524   0.0000   0.0000   0.0000   0.2543
  13.800   1.3938   0.06429   0.05830  -0.0314  0.0677  1.0000  -6.6967   0.0000   0.0000   0.0000   0.2537
  14.000   1.3935   0.06627   0.06024  -0.0311  0.0639  1.0000  -6.8095   0.0000   0.0000   0.0000   0.2531
  14.200   1.3844   0.07088   0.06494  -0.0312  0.0608  1.0000  -6.8067   0.0000   0.0000   0.0000   0.2529
  14.400   1.3670   0.07572   0.07000  -0.0317  0.0600  1.0000  -6.7375   0.0000   0.0000   0.0000   0.2533
  14.600   1.3514   0.07971   0.07421  -0.0327  0.0595  1.0000  -6.6971   0.0000   0.0000   0.0000   0.2538
  14.800   1.3346   0.08433   0.07905  -0.0341  0.0591  1.0000  -6.6364   0.0000   0.0000   0.0000   0.2549
  15.000   1.3163   0.08958   0.08451  -0.0362  0.0589  1.0000  -6.5555   0.0000   0.0000   0.0000   0.2564


